<?xml version="1.0" encoding="UTF-8"?>

<!-- generated on 2021-09-29 19:48:53 by Eclipse SUMO duarouter Version 1.9.2
<configuration xmlns:xsi="http://www.w3.org/2001/XMLSchema-instance" xsi:noNamespaceSchemaLocation="http://sumo.dlr.de/xsd/duarouterConfiguration.xsd">

    <input>
        <net-file value="/home/sonic/Desktop/nets/case06/intersection.net.xml"/>
        <route-files value="trips.trips.xml"/>
    </input>

    <output>
        <output-file value="intersection_random30.rou.xml"/>
        <alternatives-output value="intersection_random30.rou.alt.xml"/>
    </output>

    <time>
        <begin value="0"/>
        <end value="18000.0"/>
    </time>

    <report>
        <no-warnings value="true"/>
        <ignore-errors value="true"/>
        <no-step-log value="true"/>
    </report>

</configuration>
-->

<routes xmlns:xsi="http://www.w3.org/2001/XMLSchema-instance" xsi:noNamespaceSchemaLocation="http://sumo.dlr.de/xsd/routes_file.xsd">
    <vehicle id="0" depart="0.00">
        <route edges="E8 E10 E12 E16 E18 E19 E21"/>
    </vehicle>
    <vehicle id="1" depart="0.30">
        <route edges="E54 E52 E50 E49 E47 E38 E37 E35 E30 E29 E27 E24"/>
    </vehicle>
    <vehicle id="2" depart="0.60">
        <route edges="E25 E28 E31 E32 E36 E39 E48 gneE22 E53 E57 E58"/>
    </vehicle>
    <vehicle id="4" depart="1.20">
        <route edges="E40 E42 E45"/>
    </vehicle>
    <vehicle id="5" depart="1.50">
        <route edges="E56 E52 E50 E49 E47 E38 E37 E35 E30 E29 E27 E20 E17 E15 E11"/>
    </vehicle>
    <vehicle id="6" depart="1.80">
        <route edges="E4 E10 E12 E16 E18 E19 E21 E28 E31 E32 E36 E39 E41"/>
    </vehicle>
    <vehicle id="8" depart="2.40">
        <route edges="E26 E25 E28 E31 E32 E34"/>
    </vehicle>
    <vehicle id="10" depart="3.00">
        <route edges="E29 E27 E20 E17 E15 E14"/>
    </vehicle>
    <vehicle id="11" depart="3.30">
        <route edges="E16 E18 E19 E21 E28 E31 E32 E36 E39 E45 E43"/>
    </vehicle>
    <vehicle id="12" depart="3.60">
        <route edges="E25 E28 E31 E32 E36 E39 E48 gneE22 E53 E55"/>
    </vehicle>
    <vehicle id="13" depart="3.90">
        <route edges="E27 E20 E17 E15 E11 E9 E2 E0"/>
    </vehicle>
    <vehicle id="14" depart="4.20">
        <route edges="E54 E52 E50 E49 E47 E45 E43"/>
    </vehicle>
    <vehicle id="16" depart="4.80">
        <route edges="E50 E49 E47 E38 E37 E35 E30 E29 E27 E20 E17 E15"/>
    </vehicle>
    <vehicle id="17" depart="5.10">
        <route edges="E50 E49"/>
    </vehicle>
    <vehicle id="19" depart="5.70">
        <route edges="E4 E10 E12 E16 E18 E19 E21 E28 E31 E32 E36 E39 E48"/>
    </vehicle>
    <vehicle id="20" depart="6.00">
        <route edges="E18 E19 E21 E28 E31 E32"/>
    </vehicle>
    <vehicle id="26" depart="7.80">
        <route edges="E10 E12 E16 E18 E19 E21 E28 E31"/>
    </vehicle>
    <vehicle id="27" depart="8.10">
        <route edges="E56 E52 E50 E49 E47 E38 E37 E35 E34"/>
    </vehicle>
    <vehicle id="32" depart="9.60">
        <route edges="E28"/>
    </vehicle>
    <vehicle id="33" depart="9.90">
        <route edges="E16 E18 E19 E21 E28 E31 E32 E36 E39 E41"/>
    </vehicle>
    <vehicle id="42" depart="12.60">
        <route edges="E13 E11 E9"/>
    </vehicle>
    <vehicle id="45" depart="13.50">
        <route edges="E20 E17 E15 E11"/>
    </vehicle>
    <vehicle id="46" depart="13.80">
        <route edges="E38 E37 E35 E30 E29 E27 E23"/>
    </vehicle>
    <vehicle id="49" depart="14.70">
        <route edges="E46 E38 E37 E35 E30 E29 E27 E20 E17 E15 E11 E9 E7"/>
    </vehicle>
    <vehicle id="50" depart="15.00">
        <route edges="E35"/>
    </vehicle>
    <vehicle id="52" depart="15.60">
        <route edges="E30 E29 E27 E20"/>
    </vehicle>
    <vehicle id="71" depart="21.30">
        <route edges="E30 E29 E27 E20 E17 E15 E11 E9 E7"/>
    </vehicle>
    <vehicle id="73" depart="21.90">
        <route edges="E44 E46 E38 E37 E35 E34"/>
    </vehicle>
    <vehicle id="78" depart="23.40">
        <route edges="E12 E16 E18 E19 E21 E28 E31 E32 E36 E39 E48 gneE22"/>
    </vehicle>
    <vehicle id="79" depart="23.70">
        <route edges="E10 E12 E16 E18 E19 E21 E28 E31 E32 E36 E39 E48 gneE22 E53"/>
    </vehicle>
    <vehicle id="80" depart="24.00">
        <route edges="E5 E10 E12 E16 E18 E19 E21 E28 E31 E32 E36 E39 E48 gneE22 E53 E55"/>
    </vehicle>
    <vehicle id="85" depart="25.50">
        <route edges="E1 E4 E10 E12 E16 E18 E19 E21 E28 E31 E32 E36 E39 E48 gneE22 E53 E57 E58"/>
    </vehicle>
    <vehicle id="89" depart="26.70">
        <route edges="E12 E16 E18 E19 E21 E28 E31 E32 E36 E39 E48 gneE22"/>
    </vehicle>
    <vehicle id="91" depart="27.30">
        <route edges="E52 E50 E49 E47 E38 E37 E35 E30 E29 E27 E20 E17 E15"/>
    </vehicle>
    <vehicle id="92" depart="27.60">
        <route edges="E25 E28 E31 E32 E36 E39 E48 gneE22 E53 E57"/>
    </vehicle>
    <vehicle id="95" depart="28.50">
        <route edges="E16 E18 E19 E21 E28 E31 E32 E36 E39 E48 gneE22 E53 E55"/>
    </vehicle>
    <vehicle id="98" depart="29.40">
        <route edges="E46 E41"/>
    </vehicle>
    <vehicle id="99" depart="29.70">
        <route edges="E15 E11 E9 E7"/>
    </vehicle>
    <vehicle id="102" depart="30.60">
        <route edges="E52 E50 E49 E47 E38 E37 E35 E30 E29 E27 E20 E17 E15 E11 E9 E7"/>
    </vehicle>
    <vehicle id="106" depart="31.80">
        <route edges="E5 E10 E12 E16 E18 E19 E21 E28 E31 E32 E36 E39 E48 gneE22 E53"/>
    </vehicle>
    <vehicle id="107" depart="32.10">
        <route edges="E22 E20 E17 E15"/>
    </vehicle>
    <vehicle id="113" depart="33.90">
        <route edges="E5 E10 E12 E16 E18 E19 E21 E28 E31 E32 E36 E39 E48 gneE22 E53"/>
    </vehicle>
    <vehicle id="115" depart="34.50">
        <route edges="E8 E10 E12 E16 E18 E19 E21 E28 E31 E32 E36 E39 E45 E43"/>
    </vehicle>
    <vehicle id="116" depart="34.80">
        <route edges="E33 E30 E29 E27 E20 E17 E15 E11 E9"/>
    </vehicle>
    <vehicle id="119" depart="35.70">
        <route edges="E57 E58"/>
    </vehicle>
    <vehicle id="124" depart="37.20">
        <route edges="E44 E46 E38 E37 E35 E30 E29 E27 E20"/>
    </vehicle>
    <vehicle id="126" depart="37.80">
        <route edges="E10 E12 E16 E18 E19 E21 E28 E31 E32 E36 E39 E48 gneE22 E53 E57 E58"/>
    </vehicle>
    <vehicle id="128" depart="38.40">
        <route edges="E22 E28 E31"/>
    </vehicle>
    <vehicle id="130" depart="39.00">
        <route edges="E56 E52 E50 E49 E47 E38"/>
    </vehicle>
    <vehicle id="131" depart="39.30">
        <route edges="E13 E11 E9 E2 E0"/>
    </vehicle>
    <vehicle id="132" depart="39.60">
        <route edges="E54 E52 E50 E49 E47 E38 E37 E35 E30 E29 E27 E20 E17 E15 E11 E9"/>
    </vehicle>
    <vehicle id="133" depart="39.90">
        <route edges="E26 E25 E28 E31 E32 E36 E39 E48"/>
    </vehicle>
    <vehicle id="135" depart="40.50">
        <route edges="E22 E28 E31 E32 E34"/>
    </vehicle>
    <vehicle id="136" depart="40.80">
        <route edges="E46 E38 E37 E35"/>
    </vehicle>
    <vehicle id="137" depart="41.10">
        <route edges="E13 E16 E18 E19 E21 E28 E31 E32 E36 E39 E48 gneE22 E53 E55"/>
    </vehicle>
    <vehicle id="138" depart="41.40">
        <route edges="E44 E46 E38 E37 E35 E30 E29 E27 E20 E17 E15 E11 E9 E2"/>
    </vehicle>
    <vehicle id="143" depart="42.90">
        <route edges="E46 E38"/>
    </vehicle>
    <vehicle id="145" depart="43.50">
        <route edges="E46 E41"/>
    </vehicle>
    <vehicle id="146" depart="43.80">
        <route edges="E25 E20 E17 E15 E11 E9 E7"/>
    </vehicle>
    <vehicle id="149" depart="44.70">
        <route edges="E56 E52 E50 E49 E47 E38 E37"/>
    </vehicle>
    <vehicle id="150" depart="45.00">
        <route edges="E40 E42 E38 E37 E35 E30 E29 E27 E20 E17 E15 E11 E9"/>
    </vehicle>
    <vehicle id="157" depart="47.10">
        <route edges="E1 E4 E10 E12 E16 E18 E19 E21 E28 E31 E32 E36 E39 E41"/>
    </vehicle>
    <vehicle id="159" depart="47.70">
        <route edges="E18 E19 E21 E28 E31 E32 E36 E39 E48"/>
    </vehicle>
    <vehicle id="160" depart="48.00">
        <route edges="E27 E20"/>
    </vehicle>
    <vehicle id="163" depart="48.90">
        <route edges="E22 E20 E17 E15 E11 E9 E7"/>
    </vehicle>
    <vehicle id="169" depart="50.70">
        <route edges="E35 E30 E29 E27 E24"/>
    </vehicle>
    <vehicle id="173" depart="51.90">
        <route edges="E22 E28 E31 E32 E36 E39 E48 gneE22 E53 E57 E58"/>
    </vehicle>
    <vehicle id="179" depart="53.70">
        <route edges="E42 E38 E37 E35 E30 E29 E27 E20 E17 E15 E11 E9 E2"/>
    </vehicle>
    <vehicle id="183" depart="54.90">
        <route edges="E18 E19 E21 E28 E31 E32 E36 E39 E45"/>
    </vehicle>
    <vehicle id="184" depart="55.20">
        <route edges="E36 E39 E48 gneE22"/>
    </vehicle>
    <vehicle id="186" depart="55.80">
        <route edges="E20 E17 E15 E11 E9 E2 E0"/>
    </vehicle>
    <vehicle id="188" depart="56.40">
        <route edges="E46 E38 E37 E35 E30 E29 E27 E20 E17 E15 E11 E9 E2"/>
    </vehicle>
    <vehicle id="192" depart="57.60">
        <route edges="E21 E28 E31 E32 E36 E39 E45 E43"/>
    </vehicle>
    <vehicle id="193" depart="57.90">
        <route edges="E42 E38 E37 E35 E30 E29 E27"/>
    </vehicle>
    <vehicle id="197" depart="59.10">
        <route edges="E56 E52 E50 E49 E47 E38 E37 E35 E30 E29 E27"/>
    </vehicle>
    <vehicle id="198" depart="59.40">
        <route edges="E50 E49 E47 E38 E37"/>
    </vehicle>
    <vehicle id="199" depart="59.70">
        <route edges="E40 E42 E38 E37 E35"/>
    </vehicle>
    <vehicle id="201" depart="60.30">
        <route edges="E5 E10 E12 E16 E18 E19 E21 E28 E31 E32 E36 E39"/>
    </vehicle>
    <vehicle id="202" depart="60.60">
        <route edges="E10 E12 E16 E18 E19 E21 E28"/>
    </vehicle>
    <vehicle id="206" depart="61.80">
        <route edges="E1 E4 E10 E12 E16 E18 E19 E21 E28 E31 E32 E36"/>
    </vehicle>
    <vehicle id="209" depart="62.70">
        <route edges="E10 E12 E16 E18 E19 E21 E28 E31 E32 E36 E39 E41"/>
    </vehicle>
    <vehicle id="213" depart="63.90">
        <route edges="gneE22 E53 E57"/>
    </vehicle>
    <vehicle id="221" depart="66.30">
        <route edges="E36 E39 E48 gneE22 E53 E57 E58"/>
    </vehicle>
    <vehicle id="223" depart="66.90">
        <route edges="E50 E49 E47 E38 E37 E35 E30 E29 E27 E20 E17 E15 E11 E9 E2"/>
    </vehicle>
    <vehicle id="227" depart="68.10">
        <route edges="E16 E18 E19 E21 E28 E31 E32 E36 E39 E48 gneE22 E53"/>
    </vehicle>
    <vehicle id="228" depart="68.40">
        <route edges="E46 E48 gneE22 E53 E57"/>
    </vehicle>
    <vehicle id="231" depart="69.30">
        <route edges="E29"/>
    </vehicle>
    <vehicle id="232" depart="69.60">
        <route edges="E13 E16 E18 E19 E21 E28 E31 E32 E36 E39 E45"/>
    </vehicle>
    <vehicle id="237" depart="71.10">
        <route edges="E5 E10 E12 E16 E18 E19"/>
    </vehicle>
    <vehicle id="241" depart="72.30">
        <route edges="E21 E28"/>
    </vehicle>
    <vehicle id="243" depart="72.90">
        <route edges="E8 E10 E12 E16 E18"/>
    </vehicle>
    <vehicle id="246" depart="73.80">
        <route edges="E35 E30 E29 E27 E20"/>
    </vehicle>
    <vehicle id="252" depart="75.60">
        <route edges="E52 E50 E49 E47 E38 E37"/>
    </vehicle>
    <vehicle id="253" depart="75.90">
        <route edges="E37 E35 E30 E29 E27 E20 E17"/>
    </vehicle>
    <vehicle id="257" depart="77.10">
        <route edges="E39 E41"/>
    </vehicle>
    <vehicle id="258" depart="77.40">
        <route edges="E25 E20 E17 E15 E11 E9"/>
    </vehicle>
    <vehicle id="265" depart="79.50">
        <route edges="E5 E10 E12 E16 E18 E19 E21 E28 E31 E32 E36 E39 E48 gneE22"/>
    </vehicle>
    <vehicle id="266" depart="79.80">
        <route edges="E5 E10 E12 E16 E18 E19 E21"/>
    </vehicle>
    <vehicle id="267" depart="80.10">
        <route edges="E10 E12 E16 E18 E19 E21 E28 E31 E32 E36 E39 E41"/>
    </vehicle>
    <vehicle id="269" depart="80.70">
        <route edges="E54 E57 E58"/>
    </vehicle>
    <vehicle id="271" depart="81.30">
        <route edges="E13 E16 E18 E19 E21 E28 E31 E32 E36 E39 E48 gneE22 E53 E57"/>
    </vehicle>
    <vehicle id="275" depart="82.50">
        <route edges="E2 E0"/>
    </vehicle>
    <vehicle id="277" depart="83.10">
        <route edges="E21 E28"/>
    </vehicle>
    <vehicle id="278" depart="83.40">
        <route edges="E33 E30 E29 E27 E20"/>
    </vehicle>
    <vehicle id="279" depart="83.70">
        <route edges="E16 E18 E19 E21 E28 E31 E32 E36 E39 E48"/>
    </vehicle>
    <vehicle id="283" depart="84.90">
        <route edges="E29 E27 E20"/>
    </vehicle>
    <vehicle id="284" depart="85.20">
        <route edges="E52 E50 E49 E47 E38 E37 E35 E30 E29 E27 E20 E17"/>
    </vehicle>
    <vehicle id="287" depart="86.10">
        <route edges="E1 E4 E10 E12 E16 E18 E19 E21 E28 E31"/>
    </vehicle>
    <vehicle id="290" depart="87.00">
        <route edges="E46 E38 E37 E35 E30 E29"/>
    </vehicle>
    <vehicle id="294" depart="88.20">
        <route edges="E46 E41"/>
    </vehicle>
    <vehicle id="296" depart="88.80">
        <route edges="E13 E16 E18 E19 E21 E28 E31 E32 E36 E39 E45 E43"/>
    </vehicle>
    <vehicle id="298" depart="89.40">
        <route edges="E16 E18 E19 E21 E28 E31 E32 E34"/>
    </vehicle>
    <vehicle id="303" depart="90.90">
        <route edges="E1 E4 E10 E12 E16 E18 E19 E21 E28 E31 E32 E36 E39 E45 E43"/>
    </vehicle>
    <vehicle id="304" depart="91.20">
        <route edges="E42 E38 E37 E35 E30 E29 E27 E20 E17 E15 E11"/>
    </vehicle>
    <vehicle id="307" depart="92.10">
        <route edges="E32 E36 E39 E45 E43"/>
    </vehicle>
    <vehicle id="311" depart="93.30">
        <route edges="E5 E10 E12 E16"/>
    </vehicle>
    <vehicle id="315" depart="94.50">
        <route edges="E19 E21"/>
    </vehicle>
    <vehicle id="317" depart="95.10">
        <route edges="E21 E28 E31"/>
    </vehicle>
    <vehicle id="318" depart="95.40">
        <route edges="E36 E39 E48"/>
    </vehicle>
    <vehicle id="319" depart="95.70">
        <route edges="E33 E30"/>
    </vehicle>
    <vehicle id="321" depart="96.30">
        <route edges="E25 E23"/>
    </vehicle>
    <vehicle id="324" depart="97.20">
        <route edges="E20"/>
    </vehicle>
    <vehicle id="326" depart="97.80">
        <route edges="gneE22 E53 E55"/>
    </vehicle>
    <vehicle id="329" depart="98.70">
        <route edges="E27 E20"/>
    </vehicle>
    <vehicle id="330" depart="99.00">
        <route edges="E1 E4 E10 E12 E16 E18 E19 E21 E23"/>
    </vehicle>
    <vehicle id="331" depart="99.30">
        <route edges="E50 E49 E47 E38 E37 E35 E30 E29 E27 E20 E17 E15 E11 E9"/>
    </vehicle>
    <vehicle id="334" depart="100.20">
        <route edges="E21 E28 E31 E32 E36 E39"/>
    </vehicle>
    <vehicle id="335" depart="100.50">
        <route edges="E52 E50"/>
    </vehicle>
    <vehicle id="336" depart="100.80">
        <route edges="E40 E42 E38 E37 E35"/>
    </vehicle>
    <vehicle id="337" depart="101.10">
        <route edges="E35 E30 E29 E27 E23"/>
    </vehicle>
    <vehicle id="344" depart="103.20">
        <route edges="E25 E20 E17 E15 E11 E9 E2"/>
    </vehicle>
    <vehicle id="346" depart="103.80">
        <route edges="E50 E49"/>
    </vehicle>
    <vehicle id="351" depart="105.30">
        <route edges="E50 E49 E47"/>
    </vehicle>
    <vehicle id="354" depart="106.20">
        <route edges="E46 E38 E37 E35 E30 E29 E27 E20 E17 E15 E11 E9 E7"/>
    </vehicle>
    <vehicle id="357" depart="107.10">
        <route edges="E31 E32 E36 E39 E45"/>
    </vehicle>
    <vehicle id="361" depart="108.30">
        <route edges="E56 E52 E50 E49 E47 E38 E37 E35 E30 E29 E27 E20 E17 E15 E14"/>
    </vehicle>
    <vehicle id="363" depart="108.90">
        <route edges="E46 E38 E37 E35 E30 E29 E27 E20 E17 E15 E11"/>
    </vehicle>
    <vehicle id="366" depart="109.80">
        <route edges="E1 E4 E10 E12 E16 E18 E19 E21 E28 E31 E32 E34"/>
    </vehicle>
    <vehicle id="369" depart="110.70">
        <route edges="E22 E20 E17 E15 E11 E9 E7"/>
    </vehicle>
    <vehicle id="371" depart="111.30">
        <route edges="E16 E18 E19 E21 E28 E31 E32 E36 E39"/>
    </vehicle>
    <vehicle id="372" depart="111.60">
        <route edges="E56 E55"/>
    </vehicle>
    <vehicle id="373" depart="111.90">
        <route edges="E33 E30 E29 E27 E20 E17 E15 E11 E9 E7"/>
    </vehicle>
    <vehicle id="375" depart="112.50">
        <route edges="E40 E42 E48 gneE22"/>
    </vehicle>
    <vehicle id="377" depart="113.10">
        <route edges="E56 E52 E50 E49 E47 E38 E37 E35 E30 E29 E27 E20 E17"/>
    </vehicle>
    <vehicle id="380" depart="114.00">
        <route edges="E22 E20 E17 E15 E11"/>
    </vehicle>
    <vehicle id="383" depart="114.90">
        <route edges="E49 E47 E38 E37 E35 E30 E29 E27 E20 E17 E15 E11 E9 E6"/>
    </vehicle>
    <vehicle id="385" depart="115.50">
        <route edges="E46 E48 gneE22 E53 E57 E58"/>
    </vehicle>
    <vehicle id="386" depart="115.80">
        <route edges="E56 E52 E50 E49 E47 E38 E37 E35 E34"/>
    </vehicle>
    <vehicle id="396" depart="118.80">
        <route edges="E50 E49 E47 E38 E37 E35 E30 E29 E27 E20 E17 E15"/>
    </vehicle>
    <vehicle id="410" depart="123.00">
        <route edges="E8 E10 E12 E16 E18 E19 E21 E28 E31 E32 E36 E39 E48"/>
    </vehicle>
    <vehicle id="411" depart="123.30">
        <route edges="E46 E48 gneE22 E53"/>
    </vehicle>
    <vehicle id="413" depart="123.90">
        <route edges="E22 E28 E31 E32 E36 E39 E48 gneE22 E53"/>
    </vehicle>
    <vehicle id="419" depart="125.70">
        <route edges="E40 E42 E48"/>
    </vehicle>
    <vehicle id="420" depart="126.00">
        <route edges="E40 E42 E45"/>
    </vehicle>
    <vehicle id="422" depart="126.60">
        <route edges="E4 E10"/>
    </vehicle>
    <vehicle id="424" depart="127.20">
        <route edges="E47 E38 E37 E35 E30 E29 E27 E20 E17 E15 E11 E9 E2"/>
    </vehicle>
    <vehicle id="426" depart="127.80">
        <route edges="E5 E10 E12 E16 E18 E19 E21 E23"/>
    </vehicle>
    <vehicle id="429" depart="128.70">
        <route edges="E38 E37 E35"/>
    </vehicle>
    <vehicle id="430" depart="129.00">
        <route edges="E50 E49 E47 E38 E37 E35 E30 E29 E27 E20"/>
    </vehicle>
    <vehicle id="435" depart="130.50">
        <route edges="E37 E35"/>
    </vehicle>
    <vehicle id="436" depart="130.80">
        <route edges="E50 E49 E47 E41"/>
    </vehicle>
    <vehicle id="443" depart="132.90">
        <route edges="E46 E38 E37 E35 E30 E29 E27 E20 E17 E15 E11 E9 E6"/>
    </vehicle>
    <vehicle id="448" depart="134.40">
        <route edges="E40 E42 E38 E37 E35 E30 E29 E27 E20 E17"/>
    </vehicle>
    <vehicle id="449" depart="134.70">
        <route edges="E26 E25 E28 E31 E32 E36 E39 E48 gneE22 E53 E57"/>
    </vehicle>
    <vehicle id="450" depart="135.00">
        <route edges="E1 E4 E10 E12 E16 E18"/>
    </vehicle>
    <vehicle id="454" depart="136.20">
        <route edges="E32"/>
    </vehicle>
    <vehicle id="455" depart="136.50">
        <route edges="E49 E47 E38 E37 E35 E30 E29 E27 E20 E17 E15 E14"/>
    </vehicle>
    <vehicle id="457" depart="137.10">
        <route edges="E44 E46 E41"/>
    </vehicle>
    <vehicle id="458" depart="137.40">
        <route edges="E16 E18 E19 E21 E28 E31 E32"/>
    </vehicle>
    <vehicle id="460" depart="138.00">
        <route edges="E33 E30 E29 E27 E20 E17 E15 E14"/>
    </vehicle>
    <vehicle id="462" depart="138.60">
        <route edges="E20 E17 E15 E11 E9 E2"/>
    </vehicle>
    <vehicle id="468" depart="140.40">
        <route edges="E54 E52 E50 E49 E47 E38 E37 E35 E30 E29"/>
    </vehicle>
    <vehicle id="470" depart="141.00">
        <route edges="E26 E25 E28 E31 E32 E36 E39 E48 gneE22 E53 E55"/>
    </vehicle>
    <vehicle id="472" depart="141.60">
        <route edges="E38 E37 E35 E30 E29 E27"/>
    </vehicle>
    <vehicle id="473" depart="141.90">
        <route edges="E38 E37 E35"/>
    </vehicle>
    <vehicle id="475" depart="142.50">
        <route edges="E1 E4 E6"/>
    </vehicle>
    <vehicle id="476" depart="142.80">
        <route edges="E11 E9"/>
    </vehicle>
    <vehicle id="477" depart="143.10">
        <route edges="E49 E47 E38 E37 E35 E30 E29 E27 E24"/>
    </vehicle>
    <vehicle id="478" depart="143.40">
        <route edges="E50 E49 E47 E38 E37 E35 E30 E29 E27 E20"/>
    </vehicle>
    <vehicle id="479" depart="143.70">
        <route edges="E47 E38 E37"/>
    </vehicle>
    <vehicle id="480" depart="144.00">
        <route edges="E13 E16 E18 E19 E21 E28 E31 E32 E34"/>
    </vehicle>
    <vehicle id="482" depart="144.60">
        <route edges="E1 E4 E10 E12 E16 E18 E19 E21 E28 E31 E32 E36 E39 E48 gneE22 E53 E57 E58"/>
    </vehicle>
    <vehicle id="483" depart="144.90">
        <route edges="E1 E4"/>
    </vehicle>
    <vehicle id="485" depart="145.50">
        <route edges="E40 E42 E38 E37 E35 E30 E29 E27 E24"/>
    </vehicle>
    <vehicle id="487" depart="146.10">
        <route edges="E42 E48"/>
    </vehicle>
    <vehicle id="489" depart="146.70">
        <route edges="E13 E16 E18 E19 E21 E28 E31 E32 E34"/>
    </vehicle>
    <vehicle id="490" depart="147.00">
        <route edges="E46 E41"/>
    </vehicle>
    <vehicle id="495" depart="148.50">
        <route edges="E35 E30 E29 E27 E20 E17 E15 E11 E9 E2 E0"/>
    </vehicle>
    <vehicle id="497" depart="149.10">
        <route edges="E19 E21 E28"/>
    </vehicle>
    <vehicle id="498" depart="149.40">
        <route edges="E44 E46 E48 gneE22 E53 E55"/>
    </vehicle>
    <vehicle id="501" depart="150.30">
        <route edges="E28 E31 E32 E36 E39 E45 E43"/>
    </vehicle>
    <vehicle id="502" depart="150.60">
        <route edges="E27 E20 E17 E15 E11 E9 E7"/>
    </vehicle>
    <vehicle id="503" depart="150.90">
        <route edges="E31 E32 E36 E39 E45 E43"/>
    </vehicle>
    <vehicle id="506" depart="151.80">
        <route edges="E49 E47 E38 E37 E35 E30 E29 E27 E20 E17 E15 E11 E9 E2"/>
    </vehicle>
    <vehicle id="509" depart="152.70">
        <route edges="E22 E28 E31"/>
    </vehicle>
    <vehicle id="512" depart="153.60">
        <route edges="E12 E16 E18 E19 E21 E28 E31 E32 E36 E39 E45"/>
    </vehicle>
    <vehicle id="513" depart="153.90">
        <route edges="E26 E25 E28 E31 E32 E36 E39 E48 gneE22 E53 E57 E58"/>
    </vehicle>
    <vehicle id="516" depart="154.80">
        <route edges="E8 E10 E12 E16"/>
    </vehicle>
    <vehicle id="517" depart="155.10">
        <route edges="E54 E52 E50 E49 E47 E38 E37 E35 E30 E29 E27 E20 E17"/>
    </vehicle>
    <vehicle id="519" depart="155.70">
        <route edges="E31 E32"/>
    </vehicle>
    <vehicle id="523" depart="156.90">
        <route edges="E49 E47 E45"/>
    </vehicle>
    <vehicle id="526" depart="157.80">
        <route edges="E33 E36 E39"/>
    </vehicle>
    <vehicle id="530" depart="159.00">
        <route edges="E17 E15 E11 E9 E2"/>
    </vehicle>
    <vehicle id="532" depart="159.60">
        <route edges="E44 E46 E38 E37 E35 E30 E29 E27 E20 E17 E15 E11 E9 E2 E0"/>
    </vehicle>
    <vehicle id="534" depart="160.20">
        <route edges="E52 E50 E49 E47 E38 E37 E35 E30"/>
    </vehicle>
    <vehicle id="538" depart="161.40">
        <route edges="E46 E38 E37 E35 E30 E29 E27 E20 E17 E15 E11"/>
    </vehicle>
    <vehicle id="542" depart="162.60">
        <route edges="E1 E4 E10 E12 E16 E18 E19 E21 E28 E31 E32 E36 E39 E48"/>
    </vehicle>
    <vehicle id="545" depart="163.50">
        <route edges="E42 E38 E37 E35 E30 E29 E27 E20 E17 E15"/>
    </vehicle>
    <vehicle id="552" depart="165.60">
        <route edges="E44 E46 E48 gneE22 E53 E57"/>
    </vehicle>
    <vehicle id="555" depart="166.50">
        <route edges="E56 E52 E50 E49 E47 E38"/>
    </vehicle>
    <vehicle id="557" depart="167.10">
        <route edges="E1 E4 E10 E12 E16 E18 E19 E21 E28 E31 E32 E36 E39 E48"/>
    </vehicle>
    <vehicle id="558" depart="167.40">
        <route edges="E30 E29 E27 E20 E17 E15 E11 E9"/>
    </vehicle>
    <vehicle id="559" depart="167.70">
        <route edges="E48 gneE22 E53 E57"/>
    </vehicle>
    <vehicle id="562" depart="168.60">
        <route edges="E56 E52 E50 E49 E47 E38 E37 E35 E30 E29 E27 E20 E17 E15 E11 E9 E7"/>
    </vehicle>
    <vehicle id="565" depart="169.50">
        <route edges="E19 E21 E23"/>
    </vehicle>
    <vehicle id="567" depart="170.10">
        <route edges="E18 E19 E21"/>
    </vehicle>
    <vehicle id="568" depart="170.40">
        <route edges="E56 E52 E50 E49 E47 E38 E37 E35 E30 E29 E27 E20 E17 E15 E11 E9"/>
    </vehicle>
    <vehicle id="570" depart="171.00">
        <route edges="E44 E46 E48 gneE22 E53 E57 E58"/>
    </vehicle>
    <vehicle id="572" depart="171.60">
        <route edges="E25 E28 E31 E32 E36 E39 E48 gneE22 E53"/>
    </vehicle>
    <vehicle id="574" depart="172.20">
        <route edges="E40 E42 E38 E37 E35 E30 E29"/>
    </vehicle>
    <vehicle id="577" depart="173.10">
        <route edges="E22 E28 E31 E32 E36 E39 E45"/>
    </vehicle>
    <vehicle id="578" depart="173.40">
        <route edges="E26 E25 E28 E31 E32 E36 E39"/>
    </vehicle>
    <vehicle id="581" depart="174.30">
        <route edges="E32 E36 E39 E48"/>
    </vehicle>
    <vehicle id="590" depart="177.00">
        <route edges="E56 E55"/>
    </vehicle>
    <vehicle id="591" depart="177.30">
        <route edges="E52 E50 E49 E47"/>
    </vehicle>
    <vehicle id="597" depart="179.10">
        <route edges="E4 E7"/>
    </vehicle>
    <vehicle id="602" depart="180.60">
        <route edges="E33 E36 E39 E48 gneE22"/>
    </vehicle>
    <vehicle id="606" depart="181.80">
        <route edges="E33 E36 E39 E48 gneE22 E53 E57 E58"/>
    </vehicle>
    <vehicle id="607" depart="182.10">
        <route edges="E25 E28 E31 E32 E36 E39 E48 gneE22 E53"/>
    </vehicle>
    <vehicle id="608" depart="182.40">
        <route edges="E15 E11 E9 E6"/>
    </vehicle>
    <vehicle id="610" depart="183.00">
        <route edges="E28 E31 E32 E36 E39 E45 E43"/>
    </vehicle>
    <vehicle id="613" depart="183.90">
        <route edges="E8 E10 E12 E16 E18 E19"/>
    </vehicle>
    <vehicle id="614" depart="184.20">
        <route edges="E8 E10 E12 E16 E18 E19 E21 E28 E31 E32 E36 E39 E45 E43"/>
    </vehicle>
    <vehicle id="616" depart="184.80">
        <route edges="E29"/>
    </vehicle>
    <vehicle id="617" depart="185.10">
        <route edges="E32 E36"/>
    </vehicle>
    <vehicle id="618" depart="185.40">
        <route edges="E48 gneE22 E53 E57"/>
    </vehicle>
    <vehicle id="621" depart="186.30">
        <route edges="E10 E12 E16 E18 E19 E21 E28"/>
    </vehicle>
    <vehicle id="623" depart="186.90">
        <route edges="E33 E30 E29"/>
    </vehicle>
    <vehicle id="625" depart="187.50">
        <route edges="E12 E14"/>
    </vehicle>
    <vehicle id="626" depart="187.80">
        <route edges="E21 E28"/>
    </vehicle>
    <vehicle id="627" depart="188.10">
        <route edges="E19 E21 E28 E31 E32 E34"/>
    </vehicle>
    <vehicle id="630" depart="189.00">
        <route edges="E42 E38 E37 E35 E30 E29 E27 E20"/>
    </vehicle>
    <vehicle id="631" depart="189.30">
        <route edges="E19 E21 E28 E31 E32 E36 E39 E45 E43"/>
    </vehicle>
    <vehicle id="633" depart="189.90">
        <route edges="E33 E36"/>
    </vehicle>
    <vehicle id="634" depart="190.20">
        <route edges="E54 E52 E50 E49 E47 E38 E37"/>
    </vehicle>
    <vehicle id="636" depart="190.80">
        <route edges="E52 E50 E49 E47 E38 E37 E35 E30 E29 E27 E20 E17 E15 E11 E9 E2"/>
    </vehicle>
    <vehicle id="637" depart="191.10">
        <route edges="E26 E25 E28"/>
    </vehicle>
    <vehicle id="638" depart="191.40">
        <route edges="E28 E31 E32 E34"/>
    </vehicle>
    <vehicle id="640" depart="192.00">
        <route edges="E17 E15"/>
    </vehicle>
    <vehicle id="641" depart="192.30">
        <route edges="E10 E12 E16 E18"/>
    </vehicle>
    <vehicle id="642" depart="192.60">
        <route edges="E18 E19 E21 E23"/>
    </vehicle>
    <vehicle id="648" depart="194.40">
        <route edges="E21 E28 E31 E32 E36 E39 E48"/>
    </vehicle>
    <vehicle id="656" depart="196.80">
        <route edges="E16 E18 E19 E21 E28 E31 E32 E34"/>
    </vehicle>
    <vehicle id="658" depart="197.40">
        <route edges="E4 E10 E12 E16 E18"/>
    </vehicle>
    <vehicle id="660" depart="198.00">
        <route edges="E50 E49 E47 E38 E37 E35 E30 E29 E27 E20"/>
    </vehicle>
    <vehicle id="661" depart="198.30">
        <route edges="E44 E46 E38 E37 E35 E34"/>
    </vehicle>
    <vehicle id="663" depart="198.90">
        <route edges="E17"/>
    </vehicle>
    <vehicle id="666" depart="199.80">
        <route edges="E21 E28 E31 E32 E36 E39 E48 gneE22"/>
    </vehicle>
    <vehicle id="668" depart="200.40">
        <route edges="E16"/>
    </vehicle>
    <vehicle id="670" depart="201.00">
        <route edges="E39 E48 gneE22 E53 E57"/>
    </vehicle>
    <vehicle id="671" depart="201.30">
        <route edges="E21 E28 E31 E32 E36 E39 E48 gneE22 E53 E55"/>
    </vehicle>
    <vehicle id="673" depart="201.90">
        <route edges="E49 E47 E45"/>
    </vehicle>
    <vehicle id="678" depart="203.40">
        <route edges="E19 E21 E28 E31 E32"/>
    </vehicle>
    <vehicle id="679" depart="203.70">
        <route edges="E26 E25 E28 E31 E32 E36 E39 E45 E43"/>
    </vehicle>
    <vehicle id="680" depart="204.00">
        <route edges="E36"/>
    </vehicle>
    <vehicle id="681" depart="204.30">
        <route edges="E40 E42 E38 E37 E35 E30 E29 E27 E20"/>
    </vehicle>
    <vehicle id="682" depart="204.60">
        <route edges="E18 E19 E21 E28 E31 E32 E36 E39 E41"/>
    </vehicle>
    <vehicle id="683" depart="204.90">
        <route edges="E19 E21 E28"/>
    </vehicle>
    <vehicle id="684" depart="205.20">
        <route edges="E13 E16 E18 E19 E21 E28 E31 E32 E36 E39 E48 gneE22"/>
    </vehicle>
    <vehicle id="690" depart="207.00">