<?xml version="1.0" encoding="UTF-8"?>

<!-- generated on 2021-09-29 19:49:13 by Eclipse SUMO duarouter Version 1.9.2
<configuration xmlns:xsi="http://www.w3.org/2001/XMLSchema-instance" xsi:noNamespaceSchemaLocation="http://sumo.dlr.de/xsd/duarouterConfiguration.xsd">

    <input>
        <net-file value="/home/sonic/Desktop/nets/case06/intersection.net.xml"/>
        <route-files value="trips.trips.xml"/>
    </input>

    <output>
        <output-file value="intersection_random40.rou.xml"/>
        <alternatives-output value="intersection_random40.rou.alt.xml"/>
    </output>

    <time>
        <begin value="0"/>
        <end value="18000.0"/>
    </time>

    <report>
        <no-warnings value="true"/>
        <ignore-errors value="true"/>
        <no-step-log value="true"/>
    </report>

</configuration>
-->

<routes xmlns:xsi="http://www.w3.org/2001/XMLSchema-instance" xsi:noNamespaceSchemaLocation="http://sumo.dlr.de/xsd/routes_file.xsd">
    <vehicle id="2" depart="0.60">
        <route edges="E39 E48 gneE22"/>
    </vehicle>
    <vehicle id="3" depart="0.90">
        <route edges="E32 E36 E39"/>
    </vehicle>
    <vehicle id="8" depart="2.40">
        <route edges="E22 E28 E31 E32 E36 E39 E48 gneE22 E53"/>
    </vehicle>
    <vehicle id="9" depart="2.70">
        <route edges="E20 E17 E15 E11 E9 E6"/>
    </vehicle>
    <vehicle id="11" depart="3.30">
        <route edges="E18 E19 E21 E28 E31 E32 E36 E39 E48 gneE22"/>
    </vehicle>
    <vehicle id="12" depart="3.60">
        <route edges="E46 E38 E37 E35 E30 E29 E27 E20 E17 E15"/>
    </vehicle>
    <vehicle id="18" depart="5.40">
        <route edges="E16 E18 E19 E21 E24"/>
    </vehicle>
    <vehicle id="21" depart="6.30">
        <route edges="E22 E28 E31 E32 E36 E39 E48 gneE22 E53 E57"/>
    </vehicle>
    <vehicle id="23" depart="6.90">
        <route edges="E8 E10 E12 E16 E18 E19 E21 E28"/>
    </vehicle>
    <vehicle id="27" depart="8.10">
        <route edges="E26 E25 E28 E31 E32 E36 E39 E48 gneE22 E53"/>
    </vehicle>
    <vehicle id="28" depart="8.40">
        <route edges="E26 E25 E28 E31 E32 E36 E39 E48"/>
    </vehicle>
    <vehicle id="32" depart="9.60">
        <route edges="E18 E19 E21 E28 E31 E32 E36 E39 E48 gneE22"/>
    </vehicle>
    <vehicle id="33" depart="9.90">
        <route edges="E54 E52 E50"/>
    </vehicle>
    <vehicle id="35" depart="10.50">
        <route edges="E52 E50 E49 E47 E38 E37 E35 E30 E29 E27 E20"/>
    </vehicle>
    <vehicle id="36" depart="10.80">
        <route edges="E32 E36 E39 E48 gneE22 E53 E55"/>
    </vehicle>
    <vehicle id="39" depart="11.70">
        <route edges="E19 E21"/>
    </vehicle>
    <vehicle id="41" depart="12.30">
        <route edges="E52 E50 E49 E47 E38 E37 E35 E30 E29 E27 E20 E17 E15"/>
    </vehicle>
    <vehicle id="46" depart="13.80">
        <route edges="E36 E39 E48 gneE22 E53 E57 E58"/>
    </vehicle>
    <vehicle id="49" depart="14.70">
        <route edges="E9 E7"/>
    </vehicle>
    <vehicle id="53" depart="15.90">
        <route edges="E33 E30 E29 E27"/>
    </vehicle>
    <vehicle id="54" depart="16.20">
        <route edges="E29 E27 E23"/>
    </vehicle>
    <vehicle id="60" depart="18.00">
        <route edges="E18 E19 E21 E28 E31 E32 E36 E39 E48 gneE22 E53 E55"/>
    </vehicle>
    <vehicle id="67" depart="20.10">
        <route edges="E29 E27 E20 E17 E15 E11 E9 E7"/>
    </vehicle>
    <vehicle id="68" depart="20.40">
        <route edges="E35 E30 E29 E27"/>
    </vehicle>
    <vehicle id="69" depart="20.70">
        <route edges="E21 E28 E31 E32 E36 E39 E48"/>
    </vehicle>
    <vehicle id="70" depart="21.00">
        <route edges="E12 E16 E18 E19 E21 E24"/>
    </vehicle>
    <vehicle id="71" depart="21.30">
        <route edges="E42 E38 E37 E35 E30 E29 E27 E20 E17 E15"/>
    </vehicle>
    <vehicle id="72" depart="21.60">
        <route edges="E57"/>
    </vehicle>
    <vehicle id="74" depart="22.20">
        <route edges="E4 E10 E12 E16 E18 E19 E21 E28 E31 E32 E36 E39 E48"/>
    </vehicle>
    <vehicle id="77" depart="23.10">
        <route edges="E16 E18 E19 E21 E28 E31 E32 E36 E39 E41"/>
    </vehicle>
    <vehicle id="78" depart="23.40">
        <route edges="E25 E28 E31 E32 E36 E39 E45"/>
    </vehicle>
    <vehicle id="83" depart="24.90">
        <route edges="E4 E7"/>
    </vehicle>
    <vehicle id="84" depart="25.20">
        <route edges="E9 E7"/>
    </vehicle>
    <vehicle id="88" depart="26.40">
        <route edges="E1 E4 E10 E12 E16 E18 E19 E21 E28 E31 E32 E36"/>
    </vehicle>
    <vehicle id="89" depart="26.70">
        <route edges="E16 E18 E19 E21 E28 E31 E32 E36 E39 E48 gneE22 E53 E57"/>
    </vehicle>
    <vehicle id="93" depart="27.90">
        <route edges="E42 E45"/>
    </vehicle>
    <vehicle id="94" depart="28.20">
        <route edges="E12 E16"/>
    </vehicle>
    <vehicle id="95" depart="28.50">
        <route edges="E38 E37 E35 E30 E29 E27 E20 E17 E15 E11"/>
    </vehicle>
    <vehicle id="99" depart="29.70">
        <route edges="E22 E20 E17 E15 E11 E9 E7"/>
    </vehicle>
    <vehicle id="102" depart="30.60">
        <route edges="E19 E21"/>
    </vehicle>
    <vehicle id="104" depart="31.20">
        <route edges="E40 E42 E38 E37 E35 E30 E29"/>
    </vehicle>
    <vehicle id="107" depart="32.10">
        <route edges="E17 E15 E11 E9 E6"/>
    </vehicle>
    <vehicle id="108" depart="32.40">
        <route edges="E30 E29 E27 E20 E17 E15 E11 E9 E2"/>
    </vehicle>
    <vehicle id="109" depart="32.70">
        <route edges="E56 E52 E50"/>
    </vehicle>
    <vehicle id="112" depart="33.60">
        <route edges="E25 E28 E31 E32 E36 E39 E48 gneE22 E53 E55"/>
    </vehicle>
    <vehicle id="115" depart="34.50">
        <route edges="E40 E42 E48 gneE22 E53 E55"/>
    </vehicle>
    <vehicle id="117" depart="35.10">
        <route edges="E1 E4"/>
    </vehicle>
    <vehicle id="121" depart="36.30">
        <route edges="E1 E4 E10 E12 E16 E18 E19 E21"/>
    </vehicle>
    <vehicle id="122" depart="36.60">
        <route edges="E49 E47 E38 E37 E35 E30 E29 E27 E20 E17"/>
    </vehicle>
    <vehicle id="123" depart="36.90">
        <route edges="E50"/>
    </vehicle>
    <vehicle id="124" depart="37.20">
        <route edges="E4 E10 E12 E16 E18 E19 E21 E28 E31 E32 E36 E39"/>
    </vehicle>
    <vehicle id="125" depart="37.50">
        <route edges="E11 E9 E2 E0"/>
    </vehicle>
    <vehicle id="126" depart="37.80">
        <route edges="E19 E21 E24"/>
    </vehicle>
    <vehicle id="127" depart="38.10">
        <route edges="E56 E52 E50 E49 E47 E38 E37 E35 E30 E29 E27 E20 E17 E15"/>
    </vehicle>
    <vehicle id="128" depart="38.40">
        <route edges="E29 E27 E20 E17 E15 E14"/>
    </vehicle>
    <vehicle id="131" depart="39.30">
        <route edges="E25 E23"/>
    </vehicle>
    <vehicle id="133" depart="39.90">
        <route edges="E52 E50 E49 E47 E38 E37"/>
    </vehicle>
    <vehicle id="134" depart="40.20">
        <route edges="E36 E39 E48 gneE22 E53 E55"/>
    </vehicle>
    <vehicle id="135" depart="40.50">
        <route edges="E48"/>
    </vehicle>
    <vehicle id="137" depart="41.10">
        <route edges="E32 E36 E39 E45 E43"/>
    </vehicle>
    <vehicle id="139" depart="41.70">
        <route edges="E16 E18 E19 E21 E28 E31 E32 E36 E39 E48"/>
    </vehicle>
    <vehicle id="140" depart="42.00">
        <route edges="E52 E50 E49"/>
    </vehicle>
    <vehicle id="143" depart="42.90">
        <route edges="E16 E18 E19 E21 E28 E31 E32 E36 E39 E48"/>
    </vehicle>
    <vehicle id="147" depart="44.10">
        <route edges="E8 E10 E12 E16 E18"/>
    </vehicle>
    <vehicle id="148" depart="44.40">
        <route edges="E48 gneE22 E53 E55"/>
    </vehicle>
    <vehicle id="149" depart="44.70">
        <route edges="E46 E38 E37 E35 E30 E29 E27"/>
    </vehicle>
    <vehicle id="154" depart="46.20">
        <route edges="E56 E52 E50 E49 E47 E38 E37 E35 E30 E29 E27 E20 E17 E15"/>
    </vehicle>
    <vehicle id="156" depart="46.80">
        <route edges="E5 E10 E12 E16 E18 E19 E21 E28 E31"/>
    </vehicle>
    <vehicle id="159" depart="47.70">
        <route edges="E42 E38 E37 E35 E30 E29 E27 E20 E17 E15 E11 E9"/>
    </vehicle>
    <vehicle id="163" depart="48.90">
        <route edges="E28 E31"/>
    </vehicle>
    <vehicle id="165" depart="49.50">
        <route edges="E49 E47 E38 E37 E35 E30 E29 E27"/>
    </vehicle>
    <vehicle id="168" depart="50.40">
        <route edges="E20 E17 E15 E11 E9 E7"/>
    </vehicle>
    <vehicle id="175" depart="52.50">
        <route edges="E49 E47 E38 E37 E35 E30 E29 E27 E20 E17 E15 E11 E9 E2"/>
    </vehicle>
    <vehicle id="185" depart="55.50">
        <route edges="E10 E12"/>
    </vehicle>
    <vehicle id="186" depart="55.80">
        <route edges="E49 E47 E38 E37 E35 E30 E29 E27 E20 E17 E15 E11 E9 E6"/>
    </vehicle>
    <vehicle id="187" depart="56.10">
        <route edges="E40 E42 E38 E37 E35"/>
    </vehicle>
    <vehicle id="188" depart="56.40">
        <route edges="E50 E49 E47 E41"/>
    </vehicle>
    <vehicle id="191" depart="57.30">
        <route edges="E21 E28 E31 E32 E36 E39 E45 E43"/>
    </vehicle>
    <vehicle id="193" depart="57.90">
        <route edges="E4 E10 E12 E16 E18 E19 E21 E28 E31 E32 E36 E39 E48 gneE22 E53 E57 E58"/>
    </vehicle>
    <vehicle id="194" depart="58.20">
        <route edges="E30 E29 E27 E20 E17 E15 E11 E9 E2"/>
    </vehicle>
    <vehicle id="200" depart="60.00">
        <route edges="E4 E10 E12 E16 E18 E19 E21 E28 E31 E32 E36 E39 E48 gneE22"/>
    </vehicle>
    <vehicle id="203" depart="60.90">
        <route edges="E37 E35 E30 E29 E27 E20"/>
    </vehicle>
    <vehicle id="205" depart="61.50">
        <route edges="E10 E12 E16 E18 E19 E21 E28 E31 E32 E36 E39 E48 gneE22"/>
    </vehicle>
    <vehicle id="206" depart="61.80">
        <route edges="E56 E52 E50 E49 E47 E38 E37 E35 E30 E29 E27 E20 E17 E15 E14"/>
    </vehicle>
    <vehicle id="207" depart="62.10">
        <route edges="E47 E38 E37 E35 E30 E29 E27 E20"/>
    </vehicle>
    <vehicle id="208" depart="62.40">
        <route edges="E47 E38 E37 E35 E30 E29 E27 E20"/>
    </vehicle>
    <vehicle id="211" depart="63.30">
        <route edges="E38 E37 E35 E30 E29 E27"/>
    </vehicle>
    <vehicle id="214" depart="64.20">
        <route edges="E36 E39 E48 gneE22 E53 E55"/>
    </vehicle>
    <vehicle id="216" depart="64.80">
        <route edges="E10 E12 E16 E18 E19 E21 E28 E31 E32 E36"/>
    </vehicle>
    <vehicle id="217" depart="65.10">
        <route edges="E56 E52 E50 E49 E47 E38 E37 E35 E30 E29 E27 E20 E17 E15 E11 E9 E7"/>
    </vehicle>
    <vehicle id="218" depart="65.40">
        <route edges="E52 E50 E49 E47 E38 E37 E35 E30 E29 E27"/>
    </vehicle>
    <vehicle id="219" depart="65.70">
        <route edges="E54 E52 E50 E49 E47 E38 E37 E35 E30 E29 E27 E20 E17 E15"/>
    </vehicle>
    <vehicle id="221" depart="66.30">
        <route edges="E22 E24"/>
    </vehicle>
    <vehicle id="223" depart="66.90">
        <route edges="E19 E21 E28 E31 E32 E36 E39 E45 E43"/>
    </vehicle>
    <vehicle id="226" depart="67.80">
        <route edges="E22 E28 E31 E32 E36 E39 E48 gneE22 E53 E55"/>
    </vehicle>
    <vehicle id="230" depart="69.00">
        <route edges="E25 E20 E17 E15 E11 E9 E7"/>
    </vehicle>
    <vehicle id="233" depart="69.90">
        <route edges="E42 E38 E37 E35 E30 E29 E27 E24"/>
    </vehicle>
    <vehicle id="237" depart="71.10">
        <route edges="E42 E48 gneE22 E53"/>
    </vehicle>
    <vehicle id="239" depart="71.70">
        <route edges="E22 E28 E31 E32 E36 E39 E45 E43"/>
    </vehicle>
    <vehicle id="241" depart="72.30">
        <route edges="E56 E52 E50 E49 E47 E38 E37 E35 E30 E29 E27 E20 E17 E15 E11 E9 E2 E0"/>
    </vehicle>
    <vehicle id="244" depart="73.20">
        <route edges="E53 E57 E58"/>
    </vehicle>
    <vehicle id="252" depart="75.60">
        <route edges="E13 E16 E18 E19"/>
    </vehicle>
    <vehicle id="257" depart="77.10">
        <route edges="E36 E39 E48 gneE22 E53"/>
    </vehicle>
    <vehicle id="259" depart="77.70">
        <route edges="E16 E18 E19 E21 E28 E31 E32 E36 E39 E48"/>
    </vehicle>
    <vehicle id="261" depart="78.30">
        <route edges="E1 E4 E10 E12 E16 E18 E19 E21 E23"/>
    </vehicle>
    <vehicle id="264" depart="79.20">
        <route edges="E31 E32 E36"/>
    </vehicle>
    <vehicle id="271" depart="81.30">
        <route edges="E22 E28 E31 E32 E36 E39 E45"/>
    </vehicle>
    <vehicle id="281" depart="84.30">
        <route edges="E50 E49 E47 E38 E37 E35 E30 E29 E27"/>
    </vehicle>
    <vehicle id="282" depart="84.60">
        <route edges="E4 E10 E12 E16 E18 E19 E21 E28 E31 E32 E36"/>
    </vehicle>
    <vehicle id="284" depart="85.20">
        <route edges="E28 E31 E32 E36 E39 E48 gneE22 E53 E55"/>
    </vehicle>
    <vehicle id="285" depart="85.50">
        <route edges="E18 E19 E21"/>
    </vehicle>
    <vehicle id="286" depart="85.80">
        <route edges="E26 E25 E20 E17 E15 E14"/>
    </vehicle>
    <vehicle id="287" depart="86.10">
        <route edges="E4"/>
    </vehicle>
    <vehicle id="288" depart="86.40">
        <route edges="E19 E21 E28 E31 E32 E36 E39 E45 E43"/>
    </vehicle>
    <vehicle id="291" depart="87.30">
        <route edges="E8 E10 E12 E16 E18 E19 E21 E28 E31 E32"/>
    </vehicle>
    <vehicle id="292" depart="87.60">
        <route edges="E46 E38 E37 E35 E30"/>
    </vehicle>
    <vehicle id="295" depart="88.50">
        <route edges="E44 E46 E38"/>
    </vehicle>
    <vehicle id="296" depart="88.80">
        <route edges="E4 E10 E12"/>
    </vehicle>
    <vehicle id="298" depart="89.40">
        <route edges="E12 E16 E18 E19 E21 E28 E31 E32 E36 E39 E45 E43"/>
    </vehicle>
    <vehicle id="299" depart="89.70">
        <route edges="E39 E48 gneE22 E53 E57 E58"/>
    </vehicle>
    <vehicle id="300" depart="90.00">
        <route edges="E54 E52 E50 E49 E47 E45 E43"/>
    </vehicle>
    <vehicle id="302" depart="90.60">
        <route edges="E46 E48 gneE22 E53 E55"/>
    </vehicle>
    <vehicle id="303" depart="90.90">
        <route edges="E16 E18 E19 E21 E28 E31"/>
    </vehicle>
    <vehicle id="307" depart="92.10">
        <route edges="E56 E52 E50 E49 E47 E38 E37 E35 E34"/>
    </vehicle>
    <vehicle id="308" depart="92.40">
        <route edges="E9 E2 E0"/>
    </vehicle>
    <vehicle id="310" depart="93.00">
        <route edges="E1 E4 E10 E12 E16 E18 E19 E21 E28 E31 E32 E36 E39 E48 gneE22 E53 E57"/>
    </vehicle>
    <vehicle id="311" depart="93.30">
        <route edges="E21 E28 E31 E32 E36 E39 E48 gneE22 E53 E55"/>
    </vehicle>
    <vehicle id="317" depart="95.10">
        <route edges="E35 E30 E29"/>
    </vehicle>
    <vehicle id="318" depart="95.40">
        <route edges="E32 E36 E39 E48 gneE22 E53 E55"/>
    </vehicle>
    <vehicle id="320" depart="96.00">
        <route edges="E8 E10 E12 E16 E18 E19 E21 E28 E31 E32"/>
    </vehicle>
    <vehicle id="325" depart="97.50">
        <route edges="E19 E21"/>
    </vehicle>
    <vehicle id="326" depart="97.80">
        <route edges="E56 E52 E50 E49 E47"/>
    </vehicle>
    <vehicle id="327" depart="98.10">
        <route edges="E13 E16 E18 E19 E21 E28 E31 E32 E36 E39 E48 gneE22 E53"/>
    </vehicle>
    <vehicle id="331" depart="99.30">
        <route edges="E2 E0"/>
    </vehicle>
    <vehicle id="338" depart="101.40">
        <route edges="E25 E20 E17 E15 E11 E9 E2"/>
    </vehicle>
    <vehicle id="341" depart="102.30">
        <route edges="E31 E32 E36 E39 E48 gneE22 E53 E57"/>
    </vehicle>
    <vehicle id="342" depart="102.60">
        <route edges="E8 E10 E12 E16 E18 E19 E21 E28 E31 E32 E36 E39 E48 gneE22 E53 E57 E58"/>
    </vehicle>
    <vehicle id="345" depart="103.50">
        <route edges="E33 E36 E39 E41"/>
    </vehicle>
    <vehicle id="347" depart="104.10">
        <route edges="E42 E48 gneE22 E53 E55"/>
    </vehicle>
    <vehicle id="353" depart="105.90">
        <route edges="E37 E35 E30 E29 E27 E20 E17 E15"/>
    </vehicle>
    <vehicle id="356" depart="106.80">
        <route edges="E50 E49 E47 E38 E37 E35 E30 E29 E27 E20 E17 E15 E11"/>
    </vehicle>
    <vehicle id="358" depart="107.40">
        <route edges="E56 E52 E50 E49 E47 E38 E37 E35 E30 E29 E27 E20 E17 E15 E11"/>
    </vehicle>
    <vehicle id="359" depart="107.70">
        <route edges="E16 E18 E19 E21 E28 E31 E32 E36 E39 E45"/>
    </vehicle>
    <vehicle id="360" depart="108.00">
        <route edges="E13 E16 E18 E19 E21 E28 E31 E32 E36 E39 E48 gneE22"/>
    </vehicle>
    <vehicle id="363" depart="108.90">
        <route edges="E42 E38 E37 E35 E30 E29 E27 E20 E17 E15 E11"/>
    </vehicle>
    <vehicle id="364" depart="109.20">
        <route edges="E1 E4 E10 E12 E16 E18 E19 E21"/>
    </vehicle>
    <vehicle id="366" depart="109.80">
        <route edges="E26 E25 E28 E31 E32"/>
    </vehicle>
    <vehicle id="370" depart="111.00">
        <route edges="E5 E10 E12 E16 E18 E19 E21 E28 E31"/>
    </vehicle>
    <vehicle id="372" depart="111.60">
        <route edges="E57 E58"/>
    </vehicle>
    <vehicle id="373" depart="111.90">
        <route edges="E30 E29"/>
    </vehicle>
    <vehicle id="374" depart="112.20">
        <route edges="E46 E48 gneE22 E53 E57"/>
    </vehicle>
    <vehicle id="375" depart="112.50">
        <route edges="E28 E31 E32"/>
    </vehicle>
    <vehicle id="376" depart="112.80">
        <route edges="E8 E10 E12 E16"/>
    </vehicle>
    <vehicle id="386" depart="115.80">
        <route edges="E8 E10 E12 E16 E18 E19 E21 E28 E31 E32 E36 E39 E48"/>
    </vehicle>
    <vehicle id="388" depart="116.40">
        <route edges="E42 E48 gneE22 E53"/>
    </vehicle>
    <vehicle id="393" depart="117.90">
        <route edges="E26 E25 E20 E17 E15 E11 E9 E2"/>
    </vehicle>
    <vehicle id="394" depart="118.20">
        <route edges="E25 E28 E31 E32 E36 E39 E48 gneE22 E53"/>
    </vehicle>
    <vehicle id="395" depart="118.50">
        <route edges="E11 E9 E2"/>
    </vehicle>
    <vehicle id="396" depart="118.80">
        <route edges="E32 E36 E39 E48 gneE22 E53 E57 E58"/>
    </vehicle>
    <vehicle id="397" depart="119.10">
        <route edges="E5 E10 E12 E16 E18 E19 E21 E28 E31 E32 E36 E39 E48 gneE22 E53"/>
    </vehicle>
    <vehicle id="400" depart="120.00">
        <route edges="E27 E20 E17 E15 E11"/>
    </vehicle>
    <vehicle id="403" depart="120.90">
        <route edges="E4 E10 E12 E16 E18 E19 E21 E28 E31 E32"/>
    </vehicle>
    <vehicle id="407" depart="122.10">
        <route edges="E28 E31 E32 E36 E39"/>
    </vehicle>
    <vehicle id="408" depart="122.40">
        <route edges="E21 E28 E31 E32 E36 E39 E48 gneE22 E53 E57 E58"/>
    </vehicle>
    <vehicle id="414" depart="124.20">
        <route edges="E33 E36 E39 E45 E43"/>
    </vehicle>
    <vehicle id="423" depart="126.90">
        <route edges="E22 E20 E17 E15 E11 E9 E2"/>
    </vehicle>
    <vehicle id="430" depart="129.00">
        <route edges="E54 E52 E50"/>
    </vehicle>
    <vehicle id="431" depart="129.30">
        <route edges="E52 E50 E49 E47 E38 E37 E35 E30 E29 E27 E20 E17 E15 E11"/>
    </vehicle>
    <vehicle id="443" depart="132.90">
        <route edges="E20 E17"/>
    </vehicle>
    <vehicle id="449" depart="134.70">
        <route edges="E16"/>
    </vehicle>
    <vehicle id="452" depart="135.60">
        <route edges="E29 E27 E20 E17 E15 E11 E9 E2"/>
    </vehicle>
    <vehicle id="453" depart="135.90">
        <route edges="E42 E38 E37 E35 E30 E29 E27 E20 E17 E15 E11 E9 E7"/>
    </vehicle>
    <vehicle id="455" depart="136.50">
        <route edges="E22 E28 E31 E32 E36 E39 E48 gneE22 E53 E57"/>
    </vehicle>
    <vehicle id="457" depart="137.10">
        <route edges="E5 E10 E12 E16 E18 E19 E21 E28 E31 E32 E36 E39 E45"/>
    </vehicle>
    <vehicle id="463" depart="138.90">
        <route edges="E38 E37 E35 E30 E29 E27 E20"/>
    </vehicle>
    <vehicle id="464" depart="139.20">
        <route edges="E26 E25 E28 E31 E32 E36 E39 E48 gneE22 E53 E55"/>
    </vehicle>
    <vehicle id="467" depart="140.10">
        <route edges="E56 E52 E50 E49 E47"/>
    </vehicle>
    <vehicle id="469" depart="140.70">
        <route edges="E30 E29 E27 E20 E17 E15"/>
    </vehicle>
    <vehicle id="471" depart="141.30">
        <route edges="E25 E28 E31 E32 E36"/>
    </vehicle>
    <vehicle id="473" depart="141.90">
        <route edges="E31 E32 E34"/>
    </vehicle>
    <vehicle id="474" depart="142.20">
        <route edges="E46 E38 E37 E35 E30 E29 E27 E20 E17 E15"/>
    </vehicle>
    <vehicle id="477" depart="143.10">
        <route edges="E12 E16 E18 E19 E21 E28 E31 E32 E36"/>
    </vehicle>
    <vehicle id="483" depart="144.90">
        <route edges="E12 E16 E18 E19 E21 E28 E31 E32 E36 E39 E48"/>
    </vehicle>
    <vehicle id="484" depart="145.20">
        <route edges="E22 E20 E17 E15"/>
    </vehicle>
    <vehicle id="485" depart="145.50">
        <route edges="E26 E25 E28 E31 E32 E36"/>
    </vehicle>
    <vehicle id="487" depart="146.10">
        <route edges="E52 E50"/>
    </vehicle>
    <vehicle id="489" depart="146.70">
        <route edges="E42 E45 E43"/>
    </vehicle>
    <vehicle id="490" depart="147.00">
        <route edges="E46 E38 E37 E35 E30 E29"/>
    </vehicle>
    <vehicle id="491" depart="147.30">
        <route edges="E40 E42 E48 gneE22 E53 E57"/>
    </vehicle>
    <vehicle id="493" depart="147.90">
        <route edges="E29"/>
    </vehicle>
    <vehicle id="501" depart="150.30">
        <route edges="E56 E52 E50 E49 E47 E38 E37 E35 E30 E29 E27 E20 E17 E15 E11 E9 E2 E0"/>
    </vehicle>
    <vehicle id="505" depart="151.50">
        <route edges="E38 E37 E35 E30 E29 E27 E20 E17"/>
    </vehicle>
    <vehicle id="507" depart="152.10">
        <route edges="E46 E48"/>
    </vehicle>
    <vehicle id="508" depart="152.40">
        <route edges="E25 E28 E31 E32 E36 E39 E48 gneE22 E53 E57"/>
    </vehicle>
    <vehicle id="512" depart="153.60">
        <route edges="E4 E7"/>
    </vehicle>
    <vehicle id="514" depart="154.20">
        <route edges="E37 E35 E30 E29 E27 E20 E17 E15 E11 E9 E2"/>
    </vehicle>
    <vehicle id="522" depart="156.60">
        <route edges="E25 E23"/>
    </vehicle>
    <vehicle id="526" depart="157.80">
        <route edges="E21 E28 E31 E32 E36 E39 E48"/>
    </vehicle>
    <vehicle id="534" depart="160.20">
        <route edges="E15 E11 E9 E2 E0"/>
    </vehicle>
    <vehicle id="535" depart="160.50">
        <route edges="E10 E12 E16"/>
    </vehicle>
    <vehicle id="536" depart="160.80">
        <route edges="E25 E28 E31 E32 E36 E39 E41"/>
    </vehicle>
    <vehicle id="539" depart="161.70">
        <route edges="E28 E31 E32 E36 E39 E45 E43"/>
    </vehicle>
    <vehicle id="543" depart="162.90">
        <route edges="E33 E30 E29 E27 E20 E17 E15 E11 E9 E2"/>
    </vehicle>
    <vehicle id="548" depart="164.40">
        <route edges="E47 E38 E37"/>
    </vehicle>
    <vehicle id="549" depart="164.70">
        <route edges="E12 E16 E18 E19 E21 E28 E31 E32 E36 E39 E48 gneE22 E53"/>
    </vehicle>
    <vehicle id="553" depart="165.90">
        <route edges="E30 E29"/>
    </vehicle>
    <vehicle id="562" depart="168.60">
        <route edges="E26 E25 E28 E31 E32 E36 E39 E48 gneE22 E53 E57 E58"/>
    </vehicle>
    <vehicle id="565" depart="169.50">
        <route edges="E25 E20 E17 E15 E11 E9 E2"/>
    </vehicle>
    <vehicle id="570" depart="171.00">
        <route edges="E40 E42 E38 E37 E35 E30 E29 E27 E20 E17 E15 E14"/>
    </vehicle>
    <vehicle id="572" depart="171.60">
        <route edges="E25 E28 E31 E32 E36"/>
    </vehicle>
    <vehicle id="573" depart="171.90">
        <route edges="E19 E21 E28 E31 E32 E36"/>
    </vehicle>
    <vehicle id="575" depart="172.50">
        <route edges="E42 E45 E43"/>
    </vehicle>
    <vehicle id="576" depart="172.80">
        <route edges="E22 E28 E31 E32 E36 E39 E48 gneE22 E53 E57"/>
    </vehicle>
    <vehicle id="577" depart="173.10">
        <route edges="E10 E12 E16 E18 E19 E21 E28 E31 E32 E34"/>
    </vehicle>
    <vehicle id="578" depart="173.40">
        <route edges="E36 E39 E48 gneE22 E53 E55"/>
    </vehicle>
    <vehicle id="581" depart="174.30">
        <route edges="E42 E48 gneE22"/>
    </vehicle>
    <vehicle id="584" depart="175.20">
        <route edges="E25 E28 E31 E32 E36 E39 E48 gneE22 E53 E55"/>
    </vehicle>
    <vehicle id="587" depart="176.10">
        <route edges="E38"/>
    </vehicle>
    <vehicle id="588" depart="176.40">
        <route edges="E16 E18 E19 E21"/>
    </vehicle>
    <vehicle id="596" depart="178.80">
        <route edges="E52 E50 E49 E47 E38 E37 E35 E30 E29 E27 E20 E17 E15 E14"/>
    </vehicle>
    <vehicle id="598" depart="179.40">
        <route edges="E10 E12 E16 E18 E19 E21 E28 E31 E32 E36 E39 E48"/>
    </vehicle>
    <vehicle id="600" depart="180.00">
        <route edges="E50 E49 E47 E41"/>
    </vehicle>
    <vehicle id="601" depart="180.30">
        <route edges="E44 E46 E48 gneE22 E53 E55"/>
    </vehicle>
    <vehicle id="603" depart="180.90">
        <route edges="E20 E17 E15 E11 E9 E2"/>
    </vehicle>
    <vehicle id="611" depart="183.30">
        <route edges="E38 E37 E35 E30 E29 E27 E20"/>
    </vehicle>
    <vehicle id="616" depart="184.80">
        <route edges="E12 E16 E18"/>
    </vehicle>
    <vehicle id="617" depart="185.10">
        <route edges="E38"/>
    </vehicle>
    <vehicle id="619" depart="185.70">
        <route edges="E46 E38 E37 E35 E30 E29"/>
    </vehicle>
    <vehicle id="620" depart="186.00">
        <route edges="E22 E28 E31 E32 E36 E39 E48 gneE22 E53"/>
    </vehicle>
    <vehicle id="622" depart="186.60">
        <route edges="E35 E30"/>
    </vehicle>
    <vehicle id="627" depart="188.10">
        <route edges="E27 E20 E17 E15 E11"/>
    </vehicle>
    <vehicle id="630" depart="189.00">
        <route edges="E40 E42 E38 E37 E35 E30 E29 E27 E20 E17 E15 E11 E9 E7"/>
    </vehicle>
    <vehicle id="634" depart="190.20">
        <route edges="E19 E21 E28 E31 E32 E36 E39 E48 gneE22 E53 E57 E58"/>
    </vehicle>
    <vehicle id="637" depart="191.10">
        <route edges="E28 E31"/>
    </vehicle>
    <vehicle id="642" depart="192.60">
        <route edges="E22 E28 E31 E32 E36 E39 E48 gneE22 E53 E57"/>
    </vehicle>
    <vehicle id="643" depart="192.90">
        <route edges="E5 E10 E12 E14"/>
    </vehicle>
    <vehicle id="644" depart="193.20">
        <route edges="E46 E38 E37 E35 E30 E29 E27"/>
    </vehicle>
    <vehicle id="645" depart="193.50">
        <route edges="E50 E49"/>
    </vehicle>
    <vehicle id="649" depart="194.70">
        <route edges="E50 E49 E47 E38 E37"/>
    </vehicle>
    <vehicle id="650" depart="195.00">
        <route edges="E38 E37 E35 E30 E29 E27 E20 E17 E15 E11 E9 E2"/>
    </vehicle>
    <vehicle id="651" depart="195.30">
        <route edges="E49 E47 E38 E37 E35 E30 E29 E27 E20 E17 E15 E11 E9"/>
    </vehicle>
    <vehicle id="653" depart="195.90">
        <route edges="E32 E36 E39 E48 gneE22"/>
    </vehicle>
    <vehicle id="655" depart="196.50">
        <route edges="E46 E38 E37 E35 E30 E29 E27 E20 E17 E15 E11 E9"/>
    </vehicle>
    <vehicle id="657" depart="197.10">
        <route edges="E16 E18"/>
    </vehicle>
    <vehicle id="659" depart="197.70">
        <route edges="E1 E4 E10 E12 E16 E18 E19 E21 E28 E31 E32 E36"/>
    </vehicle>
    <vehicle id="665" depart="199.50">
        <route edges="E37 E35 E30 E29 E27 E20 E17 E15 E11 E9"/>
    </vehicle>
    <vehicle id="666" depart="199.80">
        <route edges="E10 E12 E16 E18 E19 E21 E28 E31"/>
    </vehicle>
    <vehicle id="670" depart="201.00">
        <route edges="E19 E21 E28 E31 E32 E36 E39 E45"/>
    </vehicle>
    <vehicle id="671" depart="201.30">
        <route edges="E33 E30 E29 E27 E20 E17 E15 E11 E9 E2"/>
    </vehicle>
    <vehicle id="672" depart="201.60">
        <route edges="E42 E38 E37 E35 E30 E29 E27 E20 E17 E15 E11 E9 E2"/>
    </vehicle>
    <vehicle id="674" depart="202.20">
        <route edges="E44 E46 E48 gneE22"/>
    </vehicle>
    <vehicle id="675" depart="202.50">
        <route edges="E40 E42 E38 E37 E35 E30 E29 E27"/>
    </vehicle>
    <vehicle id="684" depart="205.20">
        <route edges="E48 gneE22 E53 E57 E58"/>
    </vehicle>
    <vehicle id="692" depart="207.60">
        <route edges="E12 E16 E18 E19 E21 E28 E31 E32 E34"/>
    </vehicle>
    <vehicle id="696" depart="208.80">
        <route edges="E54 E52 E50 E49 E47 E38 E37 E35 E30 E29 E27 E20 E17 E15"/>
    </vehicle>
    <vehicle id="697" depart="209.10">
        <route edges="E44 E46 E48 gneE22 E53 E57"/>
    </vehicle>
    <vehicle id="698" depart="209.40">
        <route edges="E16 E18 E19 E21 E28 E31 E32 E36 E39 E48 gneE22"/>
    </vehicle>
    <vehicle id="700" depart="210.00">
        <route edges="E56 E52 E50 E49 E47 E38 E37 E35 E30 E29 E27 E20 E17 E15 E14"/>
    </vehicle>
    <vehicle id="701" depart="210.30">
        <route edges="E5 E10 E12 E16 E18 E19"/>
    </vehicle>
    <vehicle id="702" depart="210.60">
        <route edges="E4 E10 E12 E16 E18 E19 E21 E28 E31 E32 E36 E39"/>
    </vehicle>
    <vehicle id="707" depart="212.10">
        <route edges="E21 E28 E31 E32 E36 E39"/>
    </vehicle>
    <vehicle id="711" depart="213.30">
        <route edges="E56 E52 E50 E49 E47 E38 E37 E35 E30 E29 E27 E20 E17 E15 E11 E9 E2"/>
    </vehicle>
    <vehicle id="712" depart="213.60">
        <route edges="E10 E12 E16 E18 E19 E21 E28 E31 E32"/>
    </vehicle>
    <vehicle id="713" depart="213.90">
        <route edges="E28 E31 E32 E36 E39 E45 E43"/>
    </vehicle>
    <vehicle id="714" depart="214.20">
        <route edges="E35 E30 E29 E27 E20 E17 E15 E11 E9 E2"/>
    </vehicle>
    <vehicle id="715" depart="214.50">
        <route edges="E4 E10 E12 E16 E18 E19 E21 E23"/>
    </vehicle>
    <vehicle id="717" depart="215.10">
        <route edges="E48 gneE22 E53 E57"/>
    </vehicle>
    <vehicle id="718" depart="215.40">
        <route edges="E21 E28 E31 E32 E34"/>
    </vehicle>
    <vehicle id="724" depart="217.20">
        <route edges="E35 E30 E29 E27"/>