<?xml version="1.0" encoding="UTF-8"?>

<!-- generated on 2021-09-29 19:47:54 by Eclipse SUMO duarouter Version 1.9.2
<configuration xmlns:xsi="http://www.w3.org/2001/XMLSchema-instance" xsi:noNamespaceSchemaLocation="http://sumo.dlr.de/xsd/duarouterConfiguration.xsd">

    <input>
        <net-file value="/home/sonic/Desktop/nets/case06/intersection.net.xml"/>
        <route-files value="trips.trips.xml"/>
    </input>

    <output>
        <output-file value="intersection_random1.rou.xml"/>
        <alternatives-output value="intersection_random1.rou.alt.xml"/>
    </output>

    <time>
        <begin value="0"/>
        <end value="18000.0"/>
    </time>

    <report>
        <no-warnings value="true"/>
        <ignore-errors value="true"/>
        <no-step-log value="true"/>
    </report>

</configuration>
-->

<routes xmlns:xsi="http://www.w3.org/2001/XMLSchema-instance" xsi:noNamespaceSchemaLocation="http://sumo.dlr.de/xsd/routes_file.xsd">
    <vehicle id="12" depart="4.80">
        <route edges="E13 E16 E18 E19 E21 E28 E31 E32 E36 E39 E48 gneE22 E53 E57 E58"/>
    </vehicle>
    <vehicle id="15" depart="6.00">
        <route edges="E42"/>
    </vehicle>
    <vehicle id="18" depart="7.20">
        <route edges="E39 E41"/>
    </vehicle>
    <vehicle id="19" depart="7.60">
        <route edges="E42 E38 E37 E35 E30 E29 E27 E20 E17 E15 E14"/>
    </vehicle>
    <vehicle id="23" depart="9.20">
        <route edges="E52 E50 E49 E47 E45"/>
    </vehicle>
    <vehicle id="25" depart="10.00">
        <route edges="E37 E35 E30 E29 E27"/>
    </vehicle>
    <vehicle id="26" depart="10.40">
        <route edges="E49 E47 E38 E37 E35 E30 E29 E27 E20 E17 E15 E11 E9 E2"/>
    </vehicle>
    <vehicle id="27" depart="10.80">
        <route edges="E31 E32 E36 E39 E45"/>
    </vehicle>
    <vehicle id="32" depart="12.80">
        <route edges="E8 E10 E12 E16 E18 E19 E21 E28 E31 E32 E36 E39 E48 gneE22 E53"/>
    </vehicle>
    <vehicle id="35" depart="14.00">
        <route edges="E22 E20 E17 E15 E11 E9 E2"/>
    </vehicle>
    <vehicle id="36" depart="14.40">
        <route edges="E50 E49 E47 E38 E37 E35 E30 E29"/>
    </vehicle>
    <vehicle id="44" depart="17.60">
        <route edges="E32 E36 E39 E48 gneE22 E53 E57"/>
    </vehicle>
    <vehicle id="45" depart="18.00">
        <route edges="E35 E30 E29 E27 E23"/>
    </vehicle>
    <vehicle id="46" depart="18.40">
        <route edges="E27 E20 E17 E15 E11 E9"/>
    </vehicle>
    <vehicle id="49" depart="19.60">
        <route edges="E37 E35 E30 E29 E27 E20 E17 E15 E11 E9 E6"/>
    </vehicle>
    <vehicle id="50" depart="20.00">
        <route edges="E31 E32 E36 E39 E48 gneE22 E53 E57"/>
    </vehicle>
    <vehicle id="51" depart="20.40">
        <route edges="E20 E17 E15"/>
    </vehicle>
    <vehicle id="58" depart="23.20">
        <route edges="E21 E28 E31 E32 E36 E39 E48 gneE22 E53 E57 E58"/>
    </vehicle>
    <vehicle id="60" depart="24.00">
        <route edges="E17 E15 E11 E9 E2"/>
    </vehicle>
    <vehicle id="63" depart="25.20">
        <route edges="E29 E27 E20 E17 E15"/>
    </vehicle>
    <vehicle id="65" depart="26.00">
        <route edges="E26 E25 E28 E31 E32 E36 E39 E48 gneE22 E53 E57 E58"/>
    </vehicle>
    <vehicle id="66" depart="26.40">
        <route edges="E56 E52 E50 E49 E47 E38 E37 E35 E30 E29 E27 E20 E17 E15 E11 E9 E7"/>
    </vehicle>
    <vehicle id="70" depart="28.00">
        <route edges="E31 E32 E36 E39 E48 gneE22 E53 E57"/>
    </vehicle>
    <vehicle id="72" depart="28.80">
        <route edges="E42 E38 E37 E35 E30 E29 E27 E23"/>
    </vehicle>
    <vehicle id="73" depart="29.20">
        <route edges="E25 E23"/>
    </vehicle>
    <vehicle id="75" depart="30.00">
        <route edges="E53 E57"/>
    </vehicle>
    <vehicle id="76" depart="30.40">
        <route edges="E18 E19 E21 E28 E31 E32 E36 E39 E45 E43"/>
    </vehicle>
    <vehicle id="77" depart="30.80">
        <route edges="E31 E32 E36 E39"/>
    </vehicle>
    <vehicle id="80" depart="32.00">
        <route edges="E1 E4 E10 E12 E16 E18 E19 E21 E28 E31"/>
    </vehicle>
    <vehicle id="81" depart="32.40">
        <route edges="E12 E16 E18 E19 E21 E28 E31 E32 E36 E39 E48 gneE22 E53 E57 E58"/>
    </vehicle>
    <vehicle id="83" depart="33.20">
        <route edges="E44 E46 E38 E37 E35 E30 E29 E27 E20 E17 E15 E11 E9 E7"/>
    </vehicle>
    <vehicle id="86" depart="34.40">
        <route edges="E12"/>
    </vehicle>
    <vehicle id="88" depart="35.20">
        <route edges="E46 E38 E37 E35"/>
    </vehicle>
    <vehicle id="90" depart="36.00">
        <route edges="E21 E28 E31 E32 E36 E39 E48"/>
    </vehicle>
    <vehicle id="94" depart="37.60">
        <route edges="E47 E38 E37 E35 E30 E29 E27 E20 E17 E15 E14"/>
    </vehicle>
    <vehicle id="95" depart="38.00">
        <route edges="E5 E10 E12 E16 E18 E19 E21 E28 E31 E32 E36 E39 E48 gneE22 E53 E57 E58"/>
    </vehicle>
    <vehicle id="96" depart="38.40">
        <route edges="E26 E25 E20 E17 E15 E11 E9 E2 E0"/>
    </vehicle>
    <vehicle id="97" depart="38.80">
        <route edges="E18 E19 E21 E24"/>
    </vehicle>
    <vehicle id="101" depart="40.40">
        <route edges="E50 E49 E47 E38 E37"/>
    </vehicle>
    <vehicle id="103" depart="41.20">
        <route edges="E25 E20 E17 E15 E11"/>
    </vehicle>
    <vehicle id="104" depart="41.60">
        <route edges="E37 E35 E30 E29 E27 E20 E17 E15 E11 E9"/>
    </vehicle>
    <vehicle id="105" depart="42.00">
        <route edges="E17"/>
    </vehicle>
    <vehicle id="107" depart="42.80">
        <route edges="E50 E49"/>
    </vehicle>
    <vehicle id="108" depart="43.20">
        <route edges="E10 E12 E16"/>
    </vehicle>
    <vehicle id="109" depart="43.60">
        <route edges="E30 E29 E27 E20"/>
    </vehicle>
    <vehicle id="116" depart="46.40">
        <route edges="E8 E10 E12 E16 E18 E19 E21 E28 E31 E32 E36 E39 E45"/>
    </vehicle>
    <vehicle id="118" depart="47.20">
        <route edges="E35 E30 E29 E27 E23"/>
    </vehicle>
    <vehicle id="119" depart="47.60">
        <route edges="E8 E10 E12 E16 E18 E19 E21"/>
    </vehicle>
    <vehicle id="126" depart="50.40">
        <route edges="E56 E52 E50 E49 E47 E38 E37 E35 E30 E29 E27 E20 E17 E15 E11 E9 E2 E0"/>
    </vehicle>
    <vehicle id="127" depart="50.80">
        <route edges="E40 E42 E48 gneE22"/>
    </vehicle>
    <vehicle id="128" depart="51.20">
        <route edges="E47 E38 E37 E35 E30 E29 E27 E20 E17 E15 E11"/>
    </vehicle>
    <vehicle id="129" depart="51.60">
        <route edges="E5 E10 E12 E16 E18 E19 E21 E28 E31"/>
    </vehicle>
    <vehicle id="137" depart="54.80">
        <route edges="E26 E25 E28 E31 E32 E36 E39 E48"/>
    </vehicle>
    <vehicle id="139" depart="55.60">
        <route edges="E8 E10 E12 E16 E18 E19 E21 E28 E31 E32 E36 E39 E48 gneE22 E53 E55"/>
    </vehicle>
    <vehicle id="140" depart="56.00">
        <route edges="E33 E30 E29 E27"/>
    </vehicle>
    <vehicle id="142" depart="56.80">
        <route edges="E16 E18 E19 E21 E28 E31 E32 E34"/>
    </vehicle>
    <vehicle id="143" depart="57.20">
        <route edges="E35 E30 E29 E27 E20 E17 E15 E11 E9 E7"/>
    </vehicle>
    <vehicle id="144" depart="57.60">
        <route edges="E28 E31 E32 E36 E39"/>
    </vehicle>
    <vehicle id="145" depart="58.00">
        <route edges="E50 E49 E47 E38 E37 E35 E30 E29"/>
    </vehicle>
    <vehicle id="146" depart="58.40">
        <route edges="E54 E52 E50 E49 E47 E38 E37 E35 E30 E29 E27 E20 E17 E15"/>
    </vehicle>
    <vehicle id="148" depart="59.20">
        <route edges="E36 E39 E45 E43"/>
    </vehicle>
    <vehicle id="151" depart="60.40">
        <route edges="E49 E47 E38 E37 E35 E30"/>
    </vehicle>
    <vehicle id="158" depart="63.20">
        <route edges="E5 E10 E12 E16 E18 E19 E21 E28 E31 E32 E36 E39 E41"/>
    </vehicle>
    <vehicle id="160" depart="64.00">
        <route edges="E16 E18 E19 E21 E28 E31 E32 E36"/>
    </vehicle>
    <vehicle id="162" depart="64.80">
        <route edges="E44 E46 E38 E37 E35 E30 E29 E27 E20 E17 E15 E11 E9 E7"/>
    </vehicle>
    <vehicle id="163" depart="65.20">
        <route edges="E4 E10 E12 E16 E18 E19 E21 E28 E31 E32 E36 E39 E48 gneE22 E53 E57 E58"/>
    </vehicle>
    <vehicle id="164" depart="65.60">
        <route edges="E37 E35 E30 E29 E27 E20"/>
    </vehicle>
    <vehicle id="165" depart="66.00">
        <route edges="E4 E10 E12 E16 E18 E19"/>
    </vehicle>
    <vehicle id="166" depart="66.40">
        <route edges="E33 E30 E29 E27 E20 E17 E15 E14"/>
    </vehicle>
    <vehicle id="170" depart="68.00">
        <route edges="E39 E48 gneE22 E53 E57"/>
    </vehicle>
    <vehicle id="173" depart="69.20">
        <route edges="E47 E45 E43"/>
    </vehicle>
    <vehicle id="174" depart="69.60">
        <route edges="E4 E10 E12 E16 E18 E19 E21 E23"/>
    </vehicle>
    <vehicle id="180" depart="72.00">
        <route edges="E1 E4 E10 E12 E16 E18 E19"/>
    </vehicle>
    <vehicle id="182" depart="72.80">
        <route edges="E29 E27 E20 E17 E15 E11 E9"/>
    </vehicle>
    <vehicle id="187" depart="74.80">
        <route edges="gneE22"/>
    </vehicle>
    <vehicle id="189" depart="75.60">
        <route edges="E5 E10 E12 E16 E18 E19 E21"/>
    </vehicle>
    <vehicle id="190" depart="76.00">
        <route edges="E30 E29 E27 E20 E17 E15 E11 E9 E6"/>
    </vehicle>
    <vehicle id="191" depart="76.40">
        <route edges="E4 E10 E12 E16 E18 E19 E21 E28 E31 E32 E36 E39"/>
    </vehicle>
    <vehicle id="193" depart="77.20">
        <route edges="E21 E28 E31 E32 E36 E39"/>
    </vehicle>
    <vehicle id="198" depart="79.20">
        <route edges="E50 E49 E47 E38 E37 E35 E30 E29"/>
    </vehicle>
    <vehicle id="201" depart="80.40">
        <route edges="E22 E28 E31 E32 E36 E39 E48 gneE22"/>
    </vehicle>
    <vehicle id="202" depart="80.80">
        <route edges="E28 E31 E32 E36"/>
    </vehicle>
    <vehicle id="206" depart="82.40">
        <route edges="E8 E10 E12 E14"/>
    </vehicle>
    <vehicle id="207" depart="82.80">
        <route edges="E28 E31 E32 E36 E39 E48 gneE22 E53 E57 E58"/>
    </vehicle>
    <vehicle id="208" depart="83.20">
        <route edges="E54 E52 E50 E49 E47 E38 E37"/>
    </vehicle>
    <vehicle id="210" depart="84.00">
        <route edges="E25 E23"/>
    </vehicle>
    <vehicle id="214" depart="85.60">
        <route edges="E46 E48 gneE22 E53 E57 E58"/>
    </vehicle>
    <vehicle id="219" depart="87.60">
        <route edges="E50 E49 E47"/>
    </vehicle>
    <vehicle id="220" depart="88.00">
        <route edges="E56 E52 E50 E49 E47 E45"/>
    </vehicle>
    <vehicle id="221" depart="88.40">
        <route edges="E26 E25 E20 E17"/>
    </vehicle>
    <vehicle id="222" depart="88.80">
        <route edges="E25 E28 E31 E32"/>
    </vehicle>
    <vehicle id="223" depart="89.20">
        <route edges="E46 E38 E37 E35 E30 E29 E27 E20 E17 E15 E11"/>
    </vehicle>
    <vehicle id="225" depart="90.00">
        <route edges="E25 E28 E31 E32 E36"/>
    </vehicle>
    <vehicle id="229" depart="91.60">
        <route edges="E44 E46 E48 gneE22 E53 E57"/>
    </vehicle>
    <vehicle id="231" depart="92.40">
        <route edges="E31 E32 E34"/>
    </vehicle>
    <vehicle id="238" depart="95.20">
        <route edges="E4 E7"/>
    </vehicle>
    <vehicle id="241" depart="96.40">
        <route edges="E29 E27 E20 E17 E15"/>
    </vehicle>
    <vehicle id="242" depart="96.80">
        <route edges="E18 E19 E21 E28"/>
    </vehicle>
    <vehicle id="243" depart="97.20">
        <route edges="E40 E42 E38 E37 E35 E30 E29 E27 E20 E17 E15 E11"/>
    </vehicle>
    <vehicle id="247" depart="98.80">
        <route edges="E8 E10 E12 E16 E18 E19 E21 E28"/>
    </vehicle>
    <vehicle id="254" depart="101.60">
        <route edges="E42 E48 gneE22 E53"/>
    </vehicle>
    <vehicle id="257" depart="102.80">
        <route edges="E22 E24"/>
    </vehicle>
    <vehicle id="258" depart="103.20">
        <route edges="E22 E20 E17 E15 E11 E9 E2"/>
    </vehicle>
    <vehicle id="259" depart="103.60">
        <route edges="E44 E46 E38 E37 E35 E30 E29 E27 E24"/>
    </vehicle>
    <vehicle id="265" depart="106.00">
        <route edges="E40 E42 E48"/>
    </vehicle>
    <vehicle id="266" depart="106.40">
        <route edges="E56 E52 E50 E49 E47 E38 E37 E35 E30 E29 E27 E20 E17 E15 E14"/>
    </vehicle>
    <vehicle id="269" depart="107.60">
        <route edges="E29 E27 E20"/>
    </vehicle>
    <vehicle id="272" depart="108.80">
        <route edges="E40 E42 E38 E37 E35 E30 E29 E27 E20 E17 E15 E14"/>
    </vehicle>
    <vehicle id="273" depart="109.20">
        <route edges="E39"/>
    </vehicle>
    <vehicle id="274" depart="109.60">
        <route edges="E39 E41"/>
    </vehicle>
    <vehicle id="275" depart="110.00">
        <route edges="E56 E52 E50 E49 E47 E38 E37 E35 E30 E29 E27 E20 E17"/>
    </vehicle>
    <vehicle id="276" depart="110.40">
        <route edges="E4 E10 E12"/>
    </vehicle>
    <vehicle id="277" depart="110.80">
        <route edges="E1 E4 E10 E12 E16 E18 E19 E21 E28 E31 E32 E36 E39 E48 gneE22"/>
    </vehicle>
    <vehicle id="279" depart="111.60">
        <route edges="E5 E10 E12 E16 E18 E19 E21 E28 E31 E32 E34"/>
    </vehicle>
    <vehicle id="280" depart="112.00">
        <route edges="E32"/>
    </vehicle>
    <vehicle id="281" depart="112.40">
        <route edges="E46 E38"/>
    </vehicle>
    <vehicle id="283" depart="113.20">
        <route edges="E38 E37 E35"/>
    </vehicle>
    <vehicle id="284" depart="113.60">
        <route edges="E20 E17 E15"/>
    </vehicle>
    <vehicle id="287" depart="114.80">
        <route edges="E12 E16 E18 E19 E21 E28"/>
    </vehicle>
    <vehicle id="289" depart="115.60">
        <route edges="E1 E4 E10 E12 E16 E18 E19 E21 E24"/>
    </vehicle>
    <vehicle id="290" depart="116.00">
        <route edges="E1 E4 E10 E12 E16 E18"/>
    </vehicle>
    <vehicle id="294" depart="117.60">
        <route edges="E42"/>
    </vehicle>
    <vehicle id="295" depart="118.00">
        <route edges="E49 E47 E38 E37 E35 E30 E29"/>
    </vehicle>
    <vehicle id="296" depart="118.40">
        <route edges="E8 E10 E12 E16 E18 E19 E21 E28 E31 E32 E36 E39"/>
    </vehicle>
    <vehicle id="298" depart="119.20">
        <route edges="E28 E31 E32 E36 E39 E48 gneE22 E53 E55"/>
    </vehicle>
    <vehicle id="301" depart="120.40">
        <route edges="E1 E4 E10 E12 E16 E18 E19 E21 E28 E31 E32 E36 E39 E48"/>
    </vehicle>
    <vehicle id="303" depart="121.20">
        <route edges="E29 E27 E20 E17 E15 E11"/>
    </vehicle>
    <vehicle id="305" depart="122.00">
        <route edges="E8 E10 E12 E16"/>
    </vehicle>
    <vehicle id="307" depart="122.80">
        <route edges="E42 E38 E37 E35 E30 E29 E27 E20 E17 E15 E11 E9 E2"/>
    </vehicle>
    <vehicle id="309" depart="123.60">
        <route edges="E32 E36 E39 E48 gneE22 E53 E57"/>
    </vehicle>
    <vehicle id="311" depart="124.40">
        <route edges="E33 E36 E39 E48 gneE22 E53 E57"/>
    </vehicle>
    <vehicle id="320" depart="128.00">
        <route edges="E49 E47 E38 E37 E35 E34"/>
    </vehicle>
    <vehicle id="321" depart="128.40">
        <route edges="E13 E16 E18 E19 E21 E28"/>
    </vehicle>
    <vehicle id="323" depart="129.20">
        <route edges="E42 E38 E37 E35 E30 E29 E27 E23"/>
    </vehicle>
    <vehicle id="324" depart="129.60">
        <route edges="E40 E42 E38 E37 E35"/>
    </vehicle>
    <vehicle id="326" depart="130.40">
        <route edges="E25 E20 E17 E15 E11 E9 E2 E0"/>
    </vehicle>
    <vehicle id="327" depart="130.80">
        <route edges="E37 E35"/>
    </vehicle>
    <vehicle id="329" depart="131.60">
        <route edges="E33 E30 E29"/>
    </vehicle>
    <vehicle id="335" depart="134.00">
        <route edges="E40 E42 E38 E37 E35 E30 E29 E27 E20 E17 E15"/>
    </vehicle>
    <vehicle id="338" depart="135.20">
        <route edges="E46 E38 E37 E35 E30 E29 E27 E24"/>
    </vehicle>
    <vehicle id="341" depart="136.40">
        <route edges="E30 E29 E27 E24"/>
    </vehicle>
    <vehicle id="344" depart="137.60">
        <route edges="E30 E29 E27 E20 E17 E15 E11 E9 E6"/>
    </vehicle>
    <vehicle id="346" depart="138.40">
        <route edges="E56 E52 E50 E49 E47 E38 E37 E35 E30 E29 E27"/>
    </vehicle>
    <vehicle id="351" depart="140.40">
        <route edges="E40 E42 E38 E37 E35 E30 E29 E27 E20 E17 E15"/>
    </vehicle>
    <vehicle id="352" depart="140.80">
        <route edges="E38 E37 E35"/>
    </vehicle>
    <vehicle id="359" depart="143.60">
        <route edges="E37 E35 E30 E29 E27 E20 E17 E15"/>
    </vehicle>
    <vehicle id="361" depart="144.40">
        <route edges="E17 E15 E11 E9 E2"/>
    </vehicle>
    <vehicle id="363" depart="145.20">
        <route edges="E12 E16 E18 E19"/>
    </vehicle>
    <vehicle id="364" depart="145.60">
        <route edges="E25 E20"/>
    </vehicle>
    <vehicle id="366" depart="146.40">
        <route edges="E42 E38 E37 E35 E34"/>
    </vehicle>
    <vehicle id="367" depart="146.80">
        <route edges="E2 E0"/>
    </vehicle>
    <vehicle id="368" depart="147.20">
        <route edges="E49 E47 E38 E37 E35 E30 E29 E27 E20 E17"/>
    </vehicle>
    <vehicle id="371" depart="148.40">
        <route edges="E21 E28 E31 E32 E36 E39 E48 gneE22 E53 E57"/>
    </vehicle>
    <vehicle id="378" depart="151.20">
        <route edges="E54 E52 E50 E49 E47 E38 E37 E35 E30 E29 E27 E20 E17 E15 E11 E9 E6"/>
    </vehicle>
    <vehicle id="379" depart="151.60">
        <route edges="E4 E10 E12 E16 E18 E19 E21 E28 E31 E32 E36 E39 E48 gneE22 E53 E57 E58"/>
    </vehicle>
    <vehicle id="381" depart="152.40">
        <route edges="E18 E19 E21"/>
    </vehicle>
    <vehicle id="384" depart="153.60">
        <route edges="E57 E58"/>
    </vehicle>
    <vehicle id="386" depart="154.40">
        <route edges="E4 E10 E12"/>
    </vehicle>
    <vehicle id="387" depart="154.80">
        <route edges="E35 E30 E29 E27 E20"/>
    </vehicle>
    <vehicle id="400" depart="160.00">
        <route edges="E26 E25 E20"/>
    </vehicle>
    <vehicle id="401" depart="160.40">
        <route edges="E21"/>
    </vehicle>
    <vehicle id="402" depart="160.80">
        <route edges="E56 E52 E50 E49 E47 E38 E37 E35 E34"/>
    </vehicle>
    <vehicle id="406" depart="162.40">
        <route edges="E1 E4 E10 E12 E16 E18 E19 E21 E28 E31 E32 E36 E39 E45"/>
    </vehicle>
    <vehicle id="407" depart="162.80">
        <route edges="E22 E28 E31 E32 E36 E39 E48 gneE22"/>
    </vehicle>
    <vehicle id="409" depart="163.60">
        <route edges="E4 E10 E12 E16 E18 E19 E21 E28 E31 E32 E36 E39 E48 gneE22 E53 E55"/>
    </vehicle>
    <vehicle id="410" depart="164.00">
        <route edges="E35 E30 E29 E27 E20 E17 E15 E11 E9 E7"/>
    </vehicle>
    <vehicle id="411" depart="164.40">
        <route edges="E4 E10 E12 E16 E18 E19 E21 E28 E31 E32 E36 E39 E48 gneE22"/>
    </vehicle>
    <vehicle id="413" depart="165.20">
        <route edges="E1 E4 E10 E12 E14"/>
    </vehicle>
    <vehicle id="415" depart="166.00">
        <route edges="E49 E47 E38 E37 E35 E30 E29 E27 E20 E17 E15 E11 E9"/>
    </vehicle>
    <vehicle id="416" depart="166.40">
        <route edges="E1 E4 E10 E12 E16 E18 E19 E21 E28 E31 E32 E34"/>
    </vehicle>
    <vehicle id="421" depart="168.40">
        <route edges="E47 E38 E37 E35 E30 E29 E27 E20 E17 E15 E11 E9 E7"/>
    </vehicle>
    <vehicle id="423" depart="169.20">
        <route edges="E22 E24"/>
    </vehicle>
    <vehicle id="427" depart="170.80">
        <route edges="E5 E10 E12 E16 E18 E19 E21 E24"/>
    </vehicle>
    <vehicle id="429" depart="171.60">
        <route edges="E50"/>
    </vehicle>
    <vehicle id="430" depart="172.00">
        <route edges="E50 E49 E47 E38 E37 E35 E30 E29 E27 E20 E17 E15 E11 E9 E7"/>
    </vehicle>
    <vehicle id="431" depart="172.40">
        <route edges="E54 E52 E50 E49 E47 E41"/>
    </vehicle>
    <vehicle id="436" depart="174.40">
        <route edges="E8 E10 E12 E16 E18 E19 E21 E28 E31 E32"/>
    </vehicle>
    <vehicle id="437" depart="174.80">
        <route edges="E32 E36 E39"/>
    </vehicle>
    <vehicle id="439" depart="175.60">
        <route edges="E25 E20"/>
    </vehicle>
    <vehicle id="443" depart="177.20">
        <route edges="E18 E19 E21"/>
    </vehicle>
    <vehicle id="445" depart="178.00">
        <route edges="E21 E28 E31 E32 E36 E39 E48 gneE22"/>
    </vehicle>
    <vehicle id="450" depart="180.00">
        <route edges="E35 E30"/>
    </vehicle>
    <vehicle id="452" depart="180.80">
        <route edges="E49 E47 E38 E37 E35 E34"/>
    </vehicle>
    <vehicle id="453" depart="181.20">
        <route edges="E19 E21 E28 E31 E32 E36 E39 E48 gneE22 E53"/>
    </vehicle>
    <vehicle id="454" depart="181.60">
        <route edges="E10 E12 E16 E18 E19 E21 E23"/>
    </vehicle>
    <vehicle id="456" depart="182.40">
        <route edges="E12 E16 E18 E19 E21 E28"/>
    </vehicle>
    <vehicle id="464" depart="185.60">
        <route edges="E17 E15 E11"/>
    </vehicle>
    <vehicle id="465" depart="186.00">
        <route edges="E44 E46 E48 gneE22"/>
    </vehicle>
    <vehicle id="466" depart="186.40">
        <route edges="E40 E42 E38 E37 E35 E30 E29 E27 E20"/>
    </vehicle>
    <vehicle id="467" depart="186.80">
        <route edges="E40 E42 E38 E37 E35 E30 E29 E27 E20 E17 E15 E11 E9 E7"/>
    </vehicle>
    <vehicle id="468" depart="187.20">
        <route edges="E26 E25 E20 E17 E15"/>
    </vehicle>
    <vehicle id="469" depart="187.60">
        <route edges="E5 E10 E12 E16 E18 E19 E21 E28 E31"/>
    </vehicle>
    <vehicle id="474" depart="189.60">
        <route edges="E52 E50 E49 E47 E45 E43"/>
    </vehicle>
    <vehicle id="489" depart="195.60">
        <route edges="E8 E10 E12 E16 E18 E19 E21 E28 E31 E32 E36 E39 E48"/>
    </vehicle>
    <vehicle id="490" depart="196.00">
        <route edges="E44 E46 E38 E37 E35 E30 E29 E27 E20 E17 E15 E11 E9 E6"/>
    </vehicle>
    <vehicle id="491" depart="196.40">
        <route edges="gneE22 E53 E55"/>
    </vehicle>
    <vehicle id="495" depart="198.00">
        <route edges="E1 E4 E10"/>
    </vehicle>
    <vehicle id="498" depart="199.20">
        <route edges="E29 E27 E20 E17 E15 E11 E9 E2 E0"/>
    </vehicle>
    <vehicle id="502" depart="200.80">
        <route edges="E4 E10 E12 E16 E18 E19 E21 E28 E31 E32 E36 E39 E45 E43"/>
    </vehicle>
    <vehicle id="506" depart="202.40">
        <route edges="E52 E50 E49 E47 E45 E43"/>
    </vehicle>
    <vehicle id="510" depart="204.00">
        <route edges="E50 E49 E47 E38 E37 E35 E30 E29 E27 E24"/>
    </vehicle>
    <vehicle id="511" depart="204.40">
        <route edges="E16 E18"/>
    </vehicle>
    <vehicle id="512" depart="204.80">
        <route edges="E42 E45"/>
    </vehicle>
    <vehicle id="513" depart="205.20">
        <route edges="E19 E21 E28 E31 E32 E36 E39"/>
    </vehicle>
    <vehicle id="515" depart="206.00">
        <route edges="E40 E42 E38 E37 E35 E30"/>
    </vehicle>
    <vehicle id="518" depart="207.20">
        <route edges="E42 E38 E37 E35 E30 E29 E27"/>
    </vehicle>
    <vehicle id="523" depart="209.20">
        <route edges="E29 E27 E20"/>
    </vehicle>
    <vehicle id="528" depart="211.20">
        <route edges="E56 E52 E50 E49 E47 E38 E37 E35"/>
    </vehicle>
    <vehicle id="531" depart="212.40">
        <route edges="E39 E48 gneE22 E53 E55"/>
    </vehicle>
    <vehicle id="532" depart="212.80">
        <route edges="E21 E28 E31 E32"/>
    </vehicle>
    <vehicle id="533" depart="213.20">
        <route edges="E37 E35 E30 E29 E27 E20 E17 E15 E11 E9"/>
    </vehicle>
    <vehicle id="535" depart="214.00">
        <route edges="E29 E27 E20 E17 E15 E14"/>
    </vehicle>
    <vehicle id="541" depart="216.40">
        <route edges="E20 E17"/>
    </vehicle>
    <vehicle id="545" depart="218.00">
        <route edges="E46 E38 E37 E35 E30 E29 E27 E20 E17 E15 E11 E9 E2 E0"/>
    </vehicle>
    <vehicle id="548" depart="219.20">
        <route edges="E8 E2 E0"/>
    </vehicle>
    <vehicle id="549" depart="219.60">
        <route edges="E16 E18 E19 E21 E24"/>
    </vehicle>
    <vehicle id="552" depart="220.80">
        <route edges="E49 E47 E38"/>
    </vehicle>
    <vehicle id="553" depart="221.20">
        <route edges="E22 E28 E31 E32"/>
    </vehicle>
    <vehicle id="556" depart="222.40">
        <route edges="E8 E10 E12 E16 E18 E19 E21 E28"/>
    </vehicle>
    <vehicle id="557" depart="222.80">
        <route edges="E56 E52 E50 E49 E47 E38 E37 E35 E30 E29 E27 E20 E17"/>
    </vehicle>
    <vehicle id="561" depart="224.40">
        <route edges="E54 E52 E50 E49 E47 E38 E37 E35 E34"/>
    </vehicle>
    <vehicle id="564" depart="225.60">
        <route edges="E56 E52 E50 E49 E47 E38 E37 E35 E30 E29 E27 E20 E17 E15 E11 E9 E6"/>
    </vehicle>
    <vehicle id="565" depart="226.00">
        <route edges="E15"/>
    </vehicle>
    <vehicle id="566" depart="226.40">
        <route edges="E27 E20 E17 E15 E11 E9 E2 E0"/>
    </vehicle>
    <vehicle id="574" depart="229.60">
        <route edges="E32 E36 E39 E48 gneE22 E53 E55"/>
    </vehicle>
    <vehicle id="575" depart="230.00">
        <route edges="E56 E52 E50 E49 E47 E38 E37 E35 E34"/>
    </vehicle>
    <vehicle id="577" depart="230.80">
        <route edges="E33 E36 E39 E48 gneE22 E53 E57 E58"/>
    </vehicle>
    <vehicle id="581" depart="232.40">
        <route edges="E1 E4 E10 E12 E16 E18 E19"/>
    </vehicle>
    <vehicle id="584" depart="233.60">
        <route edges="E21 E28 E31 E32 E36 E39 E48 gneE22 E53"/>
    </vehicle>
    <vehicle id="589" depart="235.60">
        <route edges="E47 E38 E37 E35 E30"/>
    </vehicle>
    <vehicle id="593" depart="237.20">
        <route edges="E13 E16 E18 E19 E21 E28 E31 E32"/>
    </vehicle>
    <vehicle id="603" depart="241.20">
        <route edges="E5 E10 E12 E16 E18 E19"/>
    </vehicle>
    <vehicle id="609" depart="243.60">
        <route edges="E15 E11 E9 E7"/>
    </vehicle>
    <vehicle id="610" depart="244.00">
        <route edges="E52 E50 E49 E47 E38 E37 E35 E30 E29 E27 E20 E17 E15 E11"/>
    </vehicle>
    <vehicle id="611" depart="244.40">
        <route edges="E22 E20 E17 E15"/>
    </vehicle>
    <vehicle id="613" depart="245.20">
        <route edges="E5 E10 E12 E16 E18 E19 E21 E28 E31"/>
    </vehicle>
    <vehicle id="617" depart="246.80">
        <route edges="E52 E50 E49 E47 E38 E37 E35 E30 E29 E27 E20 E17 E15 E11"/>
    </vehicle>
    <vehicle id="618" depart="247.20">
        <route edges="E10"/>
    </vehicle>
    <vehicle id="619" depart="247.60">
        <route edges="E4"/>
    </vehicle>
    <vehicle id="622" depart="248.80">
        <route edges="E13 E16 E18 E19 E21 E28 E31 E32 E36 E39 E48 gneE22 E53 E57"/>
    </vehicle>
    <vehicle id="623" depart="249.20">
        <route edges="E47 E38 E37 E35 E30 E29 E27 E20 E17 E15 E11 E9 E7"/>
    </vehicle>
    <vehicle id="630" depart="252.00">
        <route edges="E21 E28 E31 E32 E36 E39 E48 gneE22 E53 E55"/>
    </vehicle>
    <vehicle id="635" depart="254.00">
        <route edges="E8 E10 E12 E16 E18 E19 E21 E28 E31 E32 E36 E39"/>
    </vehicle>
    <vehicle id="636" depart="254.40">
        <route edges="E38 E37 E35 E30 E29 E27 E20 E17 E15 E11 E9 E7"/>
    </vehicle>
    <vehicle id="640" depart="256.00">
        <route edges="E46 E41"/>
    </vehicle>
    <vehicle id="641" depart="256.40">
        <route edges="E8 E10 E12 E16 E18 E19 E21 E28 E31"/>
    </vehicle>
    <vehicle id="645" depart="258.00">
        <route edges="E53 E57"/>
    </vehicle>
    <vehicle id="646" depart="258.40">
        <route edges="E1 E4 E10 E12 E16 E18 E19 E21 E28 E31 E32 E36 E39"/>
    </vehicle>
    <vehicle id="648" depart="259.20">
        <route edges="E33 E30 E29 E27 E23"/>
    </vehicle>
    <vehicle id="651" depart="260.40">
        <route edges="E25 E28 E31 E32 E36 E39 E45"/>
    </vehicle>
    <vehicle id="653" depart="261.20">
        <route edges="E11 E9 E2 E0"/>
    </vehicle>
    <vehicle id="655" depart="262.00">
        <route edges="E10 E12 E16 E18 E19 E21 E28"/>
    </vehicle>
    <vehicle id="658" depart="263.20">
        <route edges="E25 E28 E31 E32 E36 E39 E48 gneE22 E53 E57"/>
    </vehicle>
    <vehicle id="662" depart="264.80">
        <route edges="E13 E16 E18 E19 E21 E28"/>
    </vehicle>
    <vehicle id="663" depart="265.20">
        <route edges="E35 E30 E29 E27 E20 E17 E15 E11 E9 E2 E0"/>
    </vehicle>
    <vehicle id="664" depart="265.60">
        <route edges="E44 E46 E38"/>
    </vehicle>
    <vehicle id="665" depart="266.00">
        <route edges="E18 E19 E21 E24"/>
    </vehicle>
    <vehicle id="670" depart="268.00">
        <route edges="E5 E10 E12"/>
    </vehicle>
    <vehicle id="671" depart="268.40">
        <route edges="E36 E39"/>
    </vehicle>
    <vehicle id="673" depart="269.20">
        <route edges="E49 E47 E38 E37 E35 E30 E29 E27 E20 E17"/>
    </vehicle>
    <vehicle id="675" depart="270.00">
        <route edges="E52 E50 E49 E47 E38 E37 E35 E30 E29 E27 E20 E17 E15 E11 E9 E7"/>
    </vehicle>
    <vehicle id="677" depart="270.80">
        <route edges="E8 E10 E12 E16 E18 E19 E21"/>
    </vehicle>
    <vehicle id="678" depart="271.20">
        <route edges="E1 E4 E10 E12 E16 E18 E19 E21 E28 E31 E32 E36 E39 E48 gneE22 E53"/>
    </vehicle>
    <vehicle id="681" depart="272.40">
        <route edges="E50 E49 E47 E38 E37 E35 E30 E29 E27 E20 E17"/>
    </vehicle>
    <vehicle id="683" depart="273.20">
        <route edges="E35 E34"/>
    </vehicle>
    <vehicle id="688" depart="275.20">
        <route edges="E5 E2"/>
    </vehicle>
    <vehicle id="689" depart="275.60">
        <route edges="E10 E12 E16 E18 E19 E21 E28 E31 E32 E36 E39 E48"/>
    </vehicle>
    <vehicle id="690" depart="276.00">
        <route edges="E32 E36 E39 E48 gneE22 E53 E57"/>
    </vehicle>
    <vehicle id="693" depart="277.20">
        <route edges="E44 E46 E38 E37 E35 E30"/>
    </vehicle>
    <vehicle id="694" depart="277.60">
        <route edges="E32 E36 E39 E41"/>
    </vehicle>