<?xml version="1.0" encoding="UTF-8"?>

<!-- generated on 2021-09-29 19:48:39 by Eclipse SUMO duarouter Version 1.9.2
<configuration xmlns:xsi="http://www.w3.org/2001/XMLSchema-instance" xsi:noNamespaceSchemaLocation="http://sumo.dlr.de/xsd/duarouterConfiguration.xsd">

    <input>
        <net-file value="/home/sonic/Desktop/nets/case06/intersection.net.xml"/>
        <route-files value="trips.trips.xml"/>
    </input>

    <output>
        <output-file value="intersection_random23.rou.xml"/>
        <alternatives-output value="intersection_random23.rou.alt.xml"/>
    </output>

    <time>
        <begin value="0"/>
        <end value="18000.0"/>
    </time>

    <report>
        <no-warnings value="true"/>
        <ignore-errors value="true"/>
        <no-step-log value="true"/>
    </report>

</configuration>
-->

<routes xmlns:xsi="http://www.w3.org/2001/XMLSchema-instance" xsi:noNamespaceSchemaLocation="http://sumo.dlr.de/xsd/routes_file.xsd">
    <vehicle id="0" depart="0.00">
        <route edges="E33 E30 E29 E27 E24"/>
    </vehicle>
    <vehicle id="3" depart="1.20">
        <route edges="E18 E19 E21 E28 E31 E32 E36 E39 E48 gneE22 E53 E55"/>
    </vehicle>
    <vehicle id="4" depart="1.60">
        <route edges="E33 E30 E29 E27 E20 E17 E15 E11 E9 E2"/>
    </vehicle>
    <vehicle id="10" depart="4.00">
        <route edges="E25 E28 E31 E32 E36 E39 E48 gneE22"/>
    </vehicle>
    <vehicle id="13" depart="5.20">
        <route edges="E5 E10 E12 E16 E18 E19 E21 E28 E31 E32"/>
    </vehicle>
    <vehicle id="15" depart="6.00">
        <route edges="E5 E10 E12 E16 E18 E19 E21 E28 E31 E32 E36 E39 E48 gneE22 E53 E57 E58"/>
    </vehicle>
    <vehicle id="16" depart="6.40">
        <route edges="E13 E16 E18 E19 E21 E23"/>
    </vehicle>
    <vehicle id="21" depart="8.40">
        <route edges="E54 E52 E50 E49 E47 E38 E37 E35 E30 E29 E27 E20 E17 E15 E11 E9 E7"/>
    </vehicle>
    <vehicle id="27" depart="10.80">
        <route edges="E38 E37 E35 E30 E29 E27 E20 E17 E15 E11 E9 E7"/>
    </vehicle>
    <vehicle id="28" depart="11.20">
        <route edges="E4 E10 E12 E16 E18 E19 E21 E28 E31 E32 E36"/>
    </vehicle>
    <vehicle id="32" depart="12.80">
        <route edges="E2 E0"/>
    </vehicle>
    <vehicle id="33" depart="13.20">
        <route edges="E16 E18 E19"/>
    </vehicle>
    <vehicle id="34" depart="13.60">
        <route edges="E38 E37"/>
    </vehicle>
    <vehicle id="35" depart="14.00">
        <route edges="E8 E10 E12 E16 E18 E19 E21 E28 E31 E32 E36 E39"/>
    </vehicle>
    <vehicle id="38" depart="15.20">
        <route edges="E40 E42 E38 E37 E35 E30 E29 E27 E20 E17 E15"/>
    </vehicle>
    <vehicle id="43" depart="17.20">
        <route edges="E18 E19 E21 E28 E31 E32 E36 E39 E41"/>
    </vehicle>
    <vehicle id="47" depart="18.80">
        <route edges="E44 E46 E41"/>
    </vehicle>
    <vehicle id="48" depart="19.20">
        <route edges="E22 E28 E31 E32 E36 E39 E48 gneE22 E53 E55"/>
    </vehicle>
    <vehicle id="49" depart="19.60">
        <route edges="E18 E19 E21 E28 E31 E32 E36 E39 E48"/>
    </vehicle>
    <vehicle id="50" depart="20.00">
        <route edges="E13 E11"/>
    </vehicle>
    <vehicle id="51" depart="20.40">
        <route edges="E54 E52 E50 E49 E47 E38 E37"/>
    </vehicle>
    <vehicle id="55" depart="22.00">
        <route edges="E1 E4 E10 E12 E16"/>
    </vehicle>
    <vehicle id="56" depart="22.40">
        <route edges="E36 E39 E48 gneE22 E53"/>
    </vehicle>
    <vehicle id="58" depart="23.20">
        <route edges="E47 E38 E37 E35 E34"/>
    </vehicle>
    <vehicle id="59" depart="23.60">
        <route edges="E12 E16 E18 E19 E21 E28 E31 E32 E36 E39 E48 gneE22 E53 E57 E58"/>
    </vehicle>
    <vehicle id="60" depart="24.00">
        <route edges="E35"/>
    </vehicle>
    <vehicle id="61" depart="24.40">
        <route edges="E35 E30 E29 E27 E20 E17 E15 E11 E9 E2"/>
    </vehicle>
    <vehicle id="62" depart="24.80">
        <route edges="E29 E27 E20 E17 E15 E11 E9 E6"/>
    </vehicle>
    <vehicle id="68" depart="27.20">
        <route edges="E49 E47 E38 E37 E35 E30 E29 E27 E20 E17 E15 E11 E9 E2 E0"/>
    </vehicle>
    <vehicle id="76" depart="30.40">
        <route edges="E52 E50 E49 E47 E38 E37 E35 E30 E29 E27 E20 E17 E15 E11"/>
    </vehicle>
    <vehicle id="77" depart="30.80">
        <route edges="E16 E18 E19 E21 E28 E31 E32 E36 E39 E45 E43"/>
    </vehicle>
    <vehicle id="80" depart="32.00">
        <route edges="E46 E38 E37 E35 E30 E29 E27 E20 E17 E15 E11 E9 E7"/>
    </vehicle>
    <vehicle id="83" depart="33.20">
        <route edges="E26 E25 E28 E31 E32 E36"/>
    </vehicle>
    <vehicle id="87" depart="34.80">
        <route edges="E1 E4 E10 E12 E16 E18 E19 E21 E28 E31 E32 E34"/>
    </vehicle>
    <vehicle id="88" depart="35.20">
        <route edges="E54 E52 E50 E49 E47 E38 E37 E35 E30"/>
    </vehicle>
    <vehicle id="93" depart="37.20">
        <route edges="E10 E12 E16 E18 E19 E21"/>
    </vehicle>
    <vehicle id="94" depart="37.60">
        <route edges="E46 E48 gneE22 E53 E57 E58"/>
    </vehicle>
    <vehicle id="99" depart="39.60">
        <route edges="E35 E30 E29 E27 E20"/>
    </vehicle>
    <vehicle id="105" depart="42.00">
        <route edges="E33 E30 E29 E27 E20 E17 E15 E11 E9 E7"/>
    </vehicle>
    <vehicle id="106" depart="42.40">
        <route edges="E42 E38 E37 E35 E30 E29"/>
    </vehicle>
    <vehicle id="107" depart="42.80">
        <route edges="E4 E10 E12 E16 E18 E19 E21 E28 E31 E32 E36 E39 E48 gneE22 E53"/>
    </vehicle>
    <vehicle id="115" depart="46.00">
        <route edges="E44 E46 E38 E37 E35 E30"/>
    </vehicle>
    <vehicle id="116" depart="46.40">
        <route edges="E20 E17 E15"/>
    </vehicle>
    <vehicle id="117" depart="46.80">
        <route edges="E36 E39 E48"/>
    </vehicle>
    <vehicle id="118" depart="47.20">
        <route edges="E19 E21 E28 E31 E32 E36 E39 E41"/>
    </vehicle>
    <vehicle id="119" depart="47.60">
        <route edges="E48 gneE22 E53"/>
    </vehicle>
    <vehicle id="121" depart="48.40">
        <route edges="E1 E4 E10 E12 E16 E18 E19 E21 E28 E31 E32 E36 E39 E48 gneE22 E53 E57"/>
    </vehicle>
    <vehicle id="122" depart="48.80">
        <route edges="E36 E39 E48 gneE22 E53 E57"/>
    </vehicle>
    <vehicle id="124" depart="49.60">
        <route edges="E26 E25 E28 E31 E32 E36 E39 E45"/>
    </vehicle>
    <vehicle id="125" depart="50.00">
        <route edges="E29 E27 E23"/>
    </vehicle>
    <vehicle id="128" depart="51.20">
        <route edges="E50 E49 E47 E38 E37 E35 E30 E29 E27 E20 E17 E15 E11 E9 E6"/>
    </vehicle>
    <vehicle id="133" depart="53.20">
        <route edges="E13 E11 E9 E2 E0"/>
    </vehicle>
    <vehicle id="136" depart="54.40">
        <route edges="E19 E21 E24"/>
    </vehicle>
    <vehicle id="137" depart="54.80">
        <route edges="E4 E10 E12 E14"/>
    </vehicle>
    <vehicle id="138" depart="55.20">
        <route edges="E54 E52 E50 E49 E47 E38 E37 E35 E30 E29 E27 E23"/>
    </vehicle>
    <vehicle id="139" depart="55.60">
        <route edges="E39 E48"/>
    </vehicle>
    <vehicle id="140" depart="56.00">
        <route edges="E47 E38 E37 E35 E30 E29 E27 E20 E17 E15 E11 E9 E2"/>
    </vehicle>
    <vehicle id="143" depart="57.20">
        <route edges="E37 E35 E30 E29 E27 E20 E17 E15 E11 E9 E7"/>
    </vehicle>
    <vehicle id="144" depart="57.60">
        <route edges="E16 E18 E19 E21 E28 E31 E32 E36 E39 E45 E43"/>
    </vehicle>
    <vehicle id="149" depart="59.60">
        <route edges="E10"/>
    </vehicle>
    <vehicle id="151" depart="60.40">
        <route edges="E25 E28 E31 E32 E36 E39 E48 gneE22 E53 E57 E58"/>
    </vehicle>
    <vehicle id="155" depart="62.00">
        <route edges="E54 E57 E58"/>
    </vehicle>
    <vehicle id="157" depart="62.80">
        <route edges="E5 E10 E12 E16"/>
    </vehicle>
    <vehicle id="162" depart="64.80">
        <route edges="E38 E37 E35 E30 E29 E27 E20 E17 E15 E11 E9 E2"/>
    </vehicle>
    <vehicle id="163" depart="65.20">
        <route edges="E21 E28 E31 E32 E34"/>
    </vehicle>
    <vehicle id="166" depart="66.40">
        <route edges="E36 E39 E45"/>
    </vehicle>
    <vehicle id="170" depart="68.00">
        <route edges="E48 gneE22 E53 E55"/>
    </vehicle>
    <vehicle id="171" depart="68.40">
        <route edges="E18 E19"/>
    </vehicle>
    <vehicle id="173" depart="69.20">
        <route edges="E5 E10 E12 E16 E18 E19 E21 E28 E31 E32 E34"/>
    </vehicle>
    <vehicle id="174" depart="69.60">
        <route edges="E19 E21 E28 E31 E32 E36 E39 E45 E43"/>
    </vehicle>
    <vehicle id="180" depart="72.00">
        <route edges="E56 E52 E50 E49"/>
    </vehicle>
    <vehicle id="182" depart="72.80">
        <route edges="E16 E18 E19 E21 E28 E31 E32 E36 E39"/>
    </vehicle>
    <vehicle id="188" depart="75.20">
        <route edges="E46 E38 E37 E35 E30 E29 E27 E20 E17 E15 E11 E9 E6"/>
    </vehicle>
    <vehicle id="191" depart="76.40">
        <route edges="E39 E48 gneE22 E53 E55"/>
    </vehicle>
    <vehicle id="192" depart="76.80">
        <route edges="E52 E50 E49 E47 E38 E37 E35 E30 E29 E27 E20 E17 E15 E11 E9"/>
    </vehicle>
    <vehicle id="193" depart="77.20">
        <route edges="E39 E48 gneE22 E53 E57 E58"/>
    </vehicle>
    <vehicle id="194" depart="77.60">
        <route edges="E21 E28 E31 E32 E36 E39 E48 gneE22"/>
    </vehicle>
    <vehicle id="195" depart="78.00">
        <route edges="E5 E10 E12 E16 E18 E19 E21 E28"/>
    </vehicle>
    <vehicle id="197" depart="78.80">
        <route edges="E26 E25 E20 E17"/>
    </vehicle>
    <vehicle id="198" depart="79.20">
        <route edges="E38 E37 E35 E30 E29 E27 E20 E17 E15 E11 E9 E2"/>
    </vehicle>
    <vehicle id="199" depart="79.60">
        <route edges="E54 E52 E50 E49 E47 E38 E37 E35 E30 E29 E27 E20"/>
    </vehicle>
    <vehicle id="200" depart="80.00">
        <route edges="E54 E52 E50 E49 E47 E45 E43"/>
    </vehicle>
    <vehicle id="201" depart="80.40">
        <route edges="E40 E42 E38 E37 E35 E30 E29 E27 E20"/>
    </vehicle>
    <vehicle id="202" depart="80.80">
        <route edges="E5 E10 E12 E16 E18 E19 E21"/>
    </vehicle>
    <vehicle id="204" depart="81.60">
        <route edges="E42 E38 E37 E35"/>
    </vehicle>
    <vehicle id="209" depart="83.60">
        <route edges="E12 E16 E18 E19 E21 E28 E31"/>
    </vehicle>
    <vehicle id="210" depart="84.00">
        <route edges="E31 E32"/>
    </vehicle>
    <vehicle id="211" depart="84.40">
        <route edges="E37 E35 E30 E29 E27 E20 E17 E15"/>
    </vehicle>
    <vehicle id="212" depart="84.80">
        <route edges="E47 E38 E37 E35 E30 E29 E27 E20 E17 E15"/>
    </vehicle>
    <vehicle id="214" depart="85.60">
        <route edges="E1 E4 E10 E12 E16 E18 E19 E21 E28 E31 E32 E36 E39 E48 gneE22 E53 E57"/>
    </vehicle>
    <vehicle id="218" depart="87.20">
        <route edges="E33 E30 E29"/>
    </vehicle>
    <vehicle id="220" depart="88.00">
        <route edges="E22 E20 E17 E15 E11 E9 E6"/>
    </vehicle>
    <vehicle id="221" depart="88.40">
        <route edges="E47 E38 E37 E35 E30 E29 E27 E20 E17 E15 E11 E9 E2"/>
    </vehicle>
    <vehicle id="227" depart="90.80">
        <route edges="E26 E25 E28 E31 E32 E36 E39 E48 gneE22 E53 E57"/>
    </vehicle>
    <vehicle id="228" depart="91.20">
        <route edges="E47 E38 E37"/>
    </vehicle>
    <vehicle id="230" depart="92.00">
        <route edges="E18 E19 E21 E28 E31 E32 E36 E39 E45 E43"/>
    </vehicle>
    <vehicle id="231" depart="92.40">
        <route edges="E25 E20 E17 E15 E11 E9 E2 E0"/>
    </vehicle>
    <vehicle id="232" depart="92.80">
        <route edges="E21 E23"/>
    </vehicle>
    <vehicle id="233" depart="93.20">
        <route edges="E8 E10 E12 E16 E18 E19"/>
    </vehicle>
    <vehicle id="235" depart="94.00">
        <route edges="E42"/>
    </vehicle>
    <vehicle id="237" depart="94.80">
        <route edges="E22 E20 E17 E15 E11 E9 E2"/>
    </vehicle>
    <vehicle id="238" depart="95.20">
        <route edges="E22 E28 E31 E32 E36 E39 E45"/>
    </vehicle>
    <vehicle id="239" depart="95.60">
        <route edges="E29 E27 E20"/>
    </vehicle>
    <vehicle id="245" depart="98.00">
        <route edges="E20 E17 E15 E11 E9 E2"/>
    </vehicle>
    <vehicle id="249" depart="99.60">
        <route edges="E19 E21 E28 E31 E32 E36 E39 E45"/>
    </vehicle>
    <vehicle id="250" depart="100.00">
        <route edges="E46 E38 E37 E35 E30 E29"/>
    </vehicle>
    <vehicle id="252" depart="100.80">
        <route edges="E12 E16 E18 E19 E21 E28 E31 E32 E36 E39 E41"/>
    </vehicle>
    <vehicle id="254" depart="101.60">
        <route edges="E46"/>
    </vehicle>
    <vehicle id="260" depart="104.00">
        <route edges="E28 E31 E32 E34"/>
    </vehicle>
    <vehicle id="261" depart="104.40">
        <route edges="E13 E16 E18 E19 E21 E28 E31 E32 E36 E39 E48 gneE22 E53 E57 E58"/>
    </vehicle>
    <vehicle id="263" depart="105.20">
        <route edges="E28 E31 E32 E36"/>
    </vehicle>
    <vehicle id="268" depart="107.20">
        <route edges="E31 E32 E36 E39 E45"/>
    </vehicle>
    <vehicle id="270" depart="108.00">
        <route edges="E30 E29 E27 E20 E17 E15 E11 E9"/>
    </vehicle>
    <vehicle id="274" depart="109.60">
        <route edges="E37 E35 E30 E29 E27 E20 E17 E15 E11 E9 E7"/>
    </vehicle>
    <vehicle id="277" depart="110.80">
        <route edges="E54 E52 E50 E49 E47 E38 E37 E35 E30"/>
    </vehicle>
    <vehicle id="281" depart="112.40">
        <route edges="E8 E2 E0"/>
    </vehicle>
    <vehicle id="285" depart="114.00">
        <route edges="E46 E38 E37 E35"/>
    </vehicle>
    <vehicle id="286" depart="114.40">
        <route edges="E5 E2"/>
    </vehicle>
    <vehicle id="293" depart="117.20">
        <route edges="E42 E38 E37 E35"/>
    </vehicle>
    <vehicle id="294" depart="117.60">
        <route edges="E19 E21 E28 E31 E32 E36 E39 E41"/>
    </vehicle>
    <vehicle id="295" depart="118.00">
        <route edges="E26 E25 E28 E31 E32 E36 E39 E48 gneE22 E53 E57 E58"/>
    </vehicle>
    <vehicle id="298" depart="119.20">
        <route edges="E4 E10 E12 E16 E18 E19 E21 E28 E31 E32 E36 E39 E48 gneE22 E53"/>
    </vehicle>
    <vehicle id="300" depart="120.00">
        <route edges="E10 E12 E16 E18"/>
    </vehicle>
    <vehicle id="303" depart="121.20">
        <route edges="E13 E16 E18 E19 E21 E28 E31 E32"/>
    </vehicle>
    <vehicle id="304" depart="121.60">
        <route edges="E21 E28 E31 E32 E36"/>
    </vehicle>
    <vehicle id="305" depart="122.00">
        <route edges="E46 E38 E37 E35 E30 E29 E27 E20 E17 E15 E11 E9 E2"/>
    </vehicle>
    <vehicle id="308" depart="123.20">
        <route edges="E26 E25 E28 E31 E32 E36 E39 E48 gneE22"/>
    </vehicle>
    <vehicle id="310" depart="124.00">
        <route edges="E44 E46"/>
    </vehicle>
    <vehicle id="316" depart="126.40">
        <route edges="E50 E49 E47 E41"/>
    </vehicle>
    <vehicle id="319" depart="127.60">
        <route edges="E27 E24"/>
    </vehicle>
    <vehicle id="320" depart="128.00">
        <route edges="E52 E50 E49 E47 E38 E37 E35 E30 E29 E27 E20 E17 E15 E11 E9 E2 E0"/>
    </vehicle>
    <vehicle id="321" depart="128.40">
        <route edges="E42 E38 E37 E35 E30 E29 E27 E20 E17 E15 E11"/>
    </vehicle>
    <vehicle id="325" depart="130.00">
        <route edges="E1 E4 E7"/>
    </vehicle>
    <vehicle id="328" depart="131.20">
        <route edges="E33 E30 E29 E27 E20 E17 E15 E11"/>
    </vehicle>
    <vehicle id="330" depart="132.00">
        <route edges="E52 E50 E49 E47 E38 E37 E35"/>
    </vehicle>
    <vehicle id="335" depart="134.00">
        <route edges="E39 E48 gneE22 E53 E55"/>
    </vehicle>
    <vehicle id="338" depart="135.20">
        <route edges="E31 E32 E36"/>
    </vehicle>
    <vehicle id="342" depart="136.80">
        <route edges="E10 E12 E16 E18 E19 E21 E28 E31 E32 E34"/>
    </vehicle>
    <vehicle id="346" depart="138.40">
        <route edges="E54 E57"/>
    </vehicle>
    <vehicle id="347" depart="138.80">
        <route edges="E35 E30 E29 E27 E20 E17 E15 E11"/>
    </vehicle>
    <vehicle id="349" depart="139.60">
        <route edges="E56 E52 E50 E49 E47 E38 E37 E35 E30 E29 E27 E20 E17 E15 E14"/>
    </vehicle>
    <vehicle id="350" depart="140.00">
        <route edges="E31"/>
    </vehicle>
    <vehicle id="354" depart="141.60">
        <route edges="E33 E30 E29 E27 E20 E17 E15 E11 E9"/>
    </vehicle>
    <vehicle id="356" depart="142.40">
        <route edges="E25 E28"/>
    </vehicle>
    <vehicle id="357" depart="142.80">
        <route edges="E36"/>
    </vehicle>
    <vehicle id="363" depart="145.20">
        <route edges="E56 E52 E50 E49 E47 E38 E37 E35 E30 E29 E27 E24"/>
    </vehicle>
    <vehicle id="364" depart="145.60">
        <route edges="E49 E47 E45"/>
    </vehicle>
    <vehicle id="366" depart="146.40">
        <route edges="E36 E39 E45 E43"/>
    </vehicle>
    <vehicle id="370" depart="148.00">
        <route edges="E56 E52 E50 E49 E47 E38 E37 E35 E30 E29 E27 E20 E17 E15 E11"/>
    </vehicle>
    <vehicle id="372" depart="148.80">
        <route edges="E12 E16"/>
    </vehicle>
    <vehicle id="375" depart="150.00">
        <route edges="E38 E37 E35 E30 E29 E27 E20 E17 E15 E14"/>
    </vehicle>
    <vehicle id="379" depart="151.60">
        <route edges="E38 E37 E35 E30 E29 E27 E23"/>
    </vehicle>
    <vehicle id="381" depart="152.40">
        <route edges="E10 E12 E16 E18 E19 E21 E28 E31 E32 E36 E39 E41"/>
    </vehicle>
    <vehicle id="382" depart="152.80">
        <route edges="E50 E49 E47 E38 E37 E35 E30 E29 E27 E20 E17 E15 E14"/>
    </vehicle>
    <vehicle id="393" depart="157.20">
        <route edges="E16 E18 E19 E21 E28 E31 E32 E36 E39 E48 gneE22 E53"/>
    </vehicle>
    <vehicle id="395" depart="158.00">
        <route edges="E16 E18 E19 E21"/>
    </vehicle>
    <vehicle id="397" depart="158.80">
        <route edges="E12 E16 E18 E19"/>
    </vehicle>
    <vehicle id="398" depart="159.20">
        <route edges="E13 E16 E18 E19 E21 E23"/>
    </vehicle>
    <vehicle id="399" depart="159.60">
        <route edges="E54 E52 E50 E49"/>
    </vehicle>
    <vehicle id="403" depart="161.20">
        <route edges="E21 E28 E31 E32 E36 E39 E48 gneE22 E53 E57 E58"/>
    </vehicle>
    <vehicle id="405" depart="162.00">
        <route edges="E13 E16 E18 E19 E21 E23"/>
    </vehicle>
    <vehicle id="409" depart="163.60">
        <route edges="E1 E4 E10 E12 E16 E18 E19 E21 E28 E31 E32 E36 E39 E48 gneE22 E53 E57"/>
    </vehicle>
    <vehicle id="411" depart="164.40">
        <route edges="E50 E49 E47 E38 E37 E35 E30 E29 E27 E20 E17 E15 E11 E9 E2 E0"/>
    </vehicle>
    <vehicle id="416" depart="166.40">
        <route edges="E44 E46 E38 E37 E35 E30 E29 E27 E24"/>
    </vehicle>
    <vehicle id="418" depart="167.20">
        <route edges="E44 E46 E38 E37 E35 E30 E29 E27 E20 E17 E15 E11 E9 E7"/>
    </vehicle>
    <vehicle id="421" depart="168.40">
        <route edges="E33 E36 E39 E45 E43"/>
    </vehicle>
    <vehicle id="424" depart="169.60">
        <route edges="E12 E16 E18 E19 E21 E28 E31 E32 E36 E39 E48 gneE22 E53 E57"/>
    </vehicle>
    <vehicle id="426" depart="170.40">
        <route edges="E22 E28 E31 E32 E36 E39"/>
    </vehicle>
    <vehicle id="428" depart="171.20">
        <route edges="E1 E4 E10 E12 E16 E18 E19 E21 E28 E31 E32 E36 E39 E48 gneE22 E53 E55"/>
    </vehicle>
    <vehicle id="431" depart="172.40">
        <route edges="E32 E36 E39 E48 gneE22 E53"/>
    </vehicle>
    <vehicle id="432" depart="172.80">
        <route edges="E49 E47 E38"/>
    </vehicle>
    <vehicle id="434" depart="173.60">
        <route edges="E32 E36 E39 E41"/>
    </vehicle>
    <vehicle id="435" depart="174.00">
        <route edges="E33 E36 E39 E41"/>
    </vehicle>
    <vehicle id="441" depart="176.40">
        <route edges="E12 E16 E18 E19 E21 E28 E31 E32 E36 E39 E48 gneE22 E53 E55"/>
    </vehicle>
    <vehicle id="442" depart="176.80">
        <route edges="E12 E16 E18 E19 E21 E28 E31 E32 E36 E39 E48 gneE22 E53"/>
    </vehicle>
    <vehicle id="444" depart="177.60">
        <route edges="E40 E42 E38 E37 E35 E30 E29 E27 E20 E17"/>
    </vehicle>
    <vehicle id="445" depart="178.00">
        <route edges="E54 E52 E50 E49 E47 E38 E37 E35 E30 E29 E27 E20 E17 E15 E11"/>
    </vehicle>
    <vehicle id="446" depart="178.40">
        <route edges="E40 E42 E38 E37 E35 E30 E29 E27"/>
    </vehicle>
    <vehicle id="448" depart="179.20">
        <route edges="E26 E25 E28"/>
    </vehicle>
    <vehicle id="449" depart="179.60">
        <route edges="E1 E4 E10 E12 E16 E18 E19 E21 E28 E31 E32 E36 E39 E48 gneE22 E53 E55"/>
    </vehicle>
    <vehicle id="452" depart="180.80">
        <route edges="E49 E47 E38 E37 E35 E30 E29 E27 E20 E17 E15 E11"/>
    </vehicle>
    <vehicle id="456" depart="182.40">
        <route edges="E25 E20 E17 E15 E11"/>
    </vehicle>
    <vehicle id="459" depart="183.60">
        <route edges="E50 E49 E47 E38 E37 E35 E34"/>
    </vehicle>
    <vehicle id="463" depart="185.20">
        <route edges="E10 E12 E16 E18 E19 E21 E28 E31 E32 E34"/>
    </vehicle>
    <vehicle id="466" depart="186.40">
        <route edges="E28 E31 E32 E36 E39 E45"/>
    </vehicle>
    <vehicle id="468" depart="187.20">
        <route edges="E37 E35 E30 E29 E27 E20 E17 E15 E11 E9 E6"/>
    </vehicle>
    <vehicle id="469" depart="187.60">
        <route edges="E46 E48 gneE22 E53 E57"/>
    </vehicle>
    <vehicle id="471" depart="188.40">
        <route edges="E49 E47 E38 E37 E35 E30 E29 E27 E20 E17 E15 E11 E9 E2"/>
    </vehicle>
    <vehicle id="476" depart="190.40">
        <route edges="E13 E16 E18 E19 E21 E28 E31 E32 E34"/>
    </vehicle>
    <vehicle id="477" depart="190.80">
        <route edges="E56 E52 E50 E49 E47 E38 E37 E35 E30 E29 E27 E20 E17 E15 E11 E9"/>
    </vehicle>
    <vehicle id="478" depart="191.20">
        <route edges="E18 E19 E21 E28"/>
    </vehicle>
    <vehicle id="480" depart="192.00">
        <route edges="E13 E11 E9"/>
    </vehicle>
    <vehicle id="481" depart="192.40">
        <route edges="E22 E24"/>
    </vehicle>
    <vehicle id="483" depart="193.20">
        <route edges="E33 E30 E29 E27 E20 E17 E15"/>
    </vehicle>
    <vehicle id="488" depart="195.20">
        <route edges="E22 E28 E31 E32 E36 E39 E48 gneE22"/>
    </vehicle>
    <vehicle id="491" depart="196.40">
        <route edges="E1 E4 E10 E12 E16 E18 E19 E21 E28 E31 E32 E34"/>
    </vehicle>
    <vehicle id="493" depart="197.20">
        <route edges="E25 E20 E17 E15 E14"/>
    </vehicle>
    <vehicle id="498" depart="199.20">
        <route edges="E50 E49 E47 E38 E37 E35 E30 E29 E27 E20"/>
    </vehicle>
    <vehicle id="499" depart="199.60">
        <route edges="E44 E46 E38 E37 E35 E30 E29 E27 E20 E17 E15 E14"/>
    </vehicle>
    <vehicle id="501" depart="200.40">
        <route edges="E50 E49 E47 E38 E37 E35 E30 E29 E27 E20 E17 E15 E11 E9"/>
    </vehicle>
    <vehicle id="502" depart="200.80">
        <route edges="E46 E38 E37 E35 E30 E29 E27 E20"/>
    </vehicle>
    <vehicle id="503" depart="201.20">
        <route edges="E19 E21 E28 E31 E32 E36 E39 E48"/>
    </vehicle>
    <vehicle id="504" depart="201.60">
        <route edges="E9 E6"/>
    </vehicle>
    <vehicle id="506" depart="202.40">
        <route edges="E18 E19"/>
    </vehicle>
    <vehicle id="508" depart="203.20">
        <route edges="E28 E31 E32 E36 E39 E48 gneE22 E53 E55"/>
    </vehicle>
    <vehicle id="509" depart="203.60">
        <route edges="E21 E24"/>
    </vehicle>
    <vehicle id="512" depart="204.80">
        <route edges="E13 E16 E18 E19 E21 E28"/>
    </vehicle>
    <vehicle id="513" depart="205.20">
        <route edges="E28 E31 E32 E36 E39 E48 gneE22 E53 E57"/>
    </vehicle>
    <vehicle id="522" depart="208.80">
        <route edges="E19 E21 E28 E31 E32 E36 E39 E48 gneE22 E53 E55"/>
    </vehicle>
    <vehicle id="524" depart="209.60">
        <route edges="E22 E28 E31 E32 E36 E39 E48 gneE22 E53"/>
    </vehicle>
    <vehicle id="529" depart="211.60">
        <route edges="E45 E43"/>
    </vehicle>
    <vehicle id="530" depart="212.00">
        <route edges="E38 E37 E35 E30 E29 E27 E20 E17 E15 E11"/>
    </vehicle>
    <vehicle id="531" depart="212.40">
        <route edges="E32 E36 E39 E48 gneE22 E53"/>
    </vehicle>
    <vehicle id="532" depart="212.80">
        <route edges="E54 E52 E50 E49 E47 E38 E37 E35 E34"/>
    </vehicle>
    <vehicle id="534" depart="213.60">
        <route edges="E52 E50 E49 E47 E38 E37 E35 E30 E29 E27 E23"/>
    </vehicle>
    <vehicle id="535" depart="214.00">
        <route edges="E40 E42"/>
    </vehicle>
    <vehicle id="540" depart="216.00">
        <route edges="E25 E28 E31 E32 E36 E39 E48 gneE22"/>
    </vehicle>
    <vehicle id="541" depart="216.40">
        <route edges="E40 E42 E48 gneE22 E53 E57 E58"/>
    </vehicle>
    <vehicle id="549" depart="219.60">
        <route edges="E53 E57"/>
    </vehicle>
    <vehicle id="550" depart="220.00">
        <route edges="E5 E10 E12 E16 E18 E19 E21 E28 E31 E32"/>
    </vehicle>
    <vehicle id="551" depart="220.40">
        <route edges="E38 E37 E35 E30 E29 E27 E20 E17 E15 E11 E9 E2"/>
    </vehicle>
    <vehicle id="552" depart="220.80">
        <route edges="E18 E19 E21 E28"/>
    </vehicle>
    <vehicle id="555" depart="222.00">
        <route edges="E20 E17 E15 E11 E9 E6"/>
    </vehicle>
    <vehicle id="558" depart="223.20">
        <route edges="E56 E52 E50 E49 E47 E45 E43"/>
    </vehicle>
    <vehicle id="559" depart="223.60">
        <route edges="E8 E10 E12 E16 E18 E19 E21 E28 E31 E32 E36 E39"/>
    </vehicle>
    <vehicle id="562" depart="224.80">
        <route edges="E54 E52 E50 E49 E47 E38 E37 E35 E30 E29"/>
    </vehicle>
    <vehicle id="564" depart="225.60">
        <route edges="E44 E46 E38 E37 E35 E30 E29 E27 E20 E17 E15 E11 E9 E2"/>
    </vehicle>
    <vehicle id="565" depart="226.00">
        <route edges="E42 E38 E37 E35 E30 E29"/>
    </vehicle>
    <vehicle id="568" depart="227.20">
        <route edges="E29 E27 E20 E17 E15 E11 E9 E2"/>
    </vehicle>
    <vehicle id="569" depart="227.60">
        <route edges="E10"/>
    </vehicle>
    <vehicle id="570" depart="228.00">
        <route edges="E18 E19 E21 E28 E31 E32 E36 E39 E48 gneE22"/>
    </vehicle>
    <vehicle id="571" depart="228.40">
        <route edges="E54 E52 E50 E49 E47 E38 E37 E35 E30 E29 E27 E20 E17 E15 E11 E9"/>
    </vehicle>
    <vehicle id="572" depart="228.80">
        <route edges="E12 E16 E18 E19 E21 E28 E31 E32 E36 E39 E48 gneE22 E53 E57 E58"/>
    </vehicle>
    <vehicle id="574" depart="229.60">
        <route edges="E36 E39 E48 gneE22 E53"/>
    </vehicle>
    <vehicle id="576" depart="230.40">
        <route edges="E38 E37 E35 E30 E29 E27 E20 E17 E15 E14"/>
    </vehicle>
    <vehicle id="577" depart="230.80">
        <route edges="E25 E20 E17 E15 E11 E9"/>
    </vehicle>
    <vehicle id="578" depart="231.20">
        <route edges="E28 E31 E32 E36 E39 E48 gneE22 E53 E57 E58"/>
    </vehicle>
    <vehicle id="579" depart="231.60">
        <route edges="E16 E18 E19 E21 E28 E31 E32 E36 E39 E45"/>
    </vehicle>
    <vehicle id="581" depart="232.40">
        <route edges="E37 E35 E30 E29 E27 E20 E17 E15 E11 E9 E7"/>
    </vehicle>
    <vehicle id="582" depart="232.80">
        <route edges="E38 E37 E35 E30 E29 E27 E24"/>
    </vehicle>
    <vehicle id="585" depart="234.00">
        <route edges="E46 E38 E37 E35 E30 E29 E27 E24"/>
    </vehicle>
    <vehicle id="587" depart="234.80">
        <route edges="E1 E4 E10 E12 E16 E18 E19 E21 E28 E31 E32 E36 E39 E45 E43"/>
    </vehicle>
    <vehicle id="589" depart="235.60">
        <route edges="E25 E20 E17 E15 E11 E9 E6"/>
    </vehicle>
    <vehicle id="591" depart="236.40">
        <route edges="E15 E14"/>
    </vehicle>
    <vehicle id="593" depart="237.20">
        <route edges="E4 E10 E12 E16 E18 E19 E21 E28 E31 E32 E34"/>
    </vehicle>
    <vehicle id="594" depart="237.60">
        <route edges="E25 E20 E17 E15 E11 E9 E2 E0"/>
    </vehicle>
    <vehicle id="600" depart="240.00">
        <route edges="E16 E18 E19 E21"/>
    </vehicle>
    <vehicle id="603" depart="241.20">
        <route edges="E12 E16 E18 E19 E21 E28 E31 E32 E36 E39 E45"/>
    </vehicle>
    <vehicle id="604" depart="241.60">
        <route edges="E47 E38 E37 E35 E30 E29 E27 E23"/>
    </vehicle>
    <vehicle id="612" depart="244.80">
        <route edges="E49 E47 E38 E37 E35 E30 E29 E27 E20 E17 E15 E11 E9 E2 E0"/>
    </vehicle>
    <vehicle id="620" depart="248.00">
        <route edges="E38 E37 E35 E30 E29 E27 E20"/>
    </vehicle>
    <vehicle id="622" depart="248.80">
        <route edges="E10 E12 E16 E18"/>
    </vehicle>
    <vehicle id="623" depart="249.20">
        <route edges="E26 E25 E20"/>
    </vehicle>
    <vehicle id="624" depart="249.60">
        <route edges="E44 E46 E41"/>
    </vehicle>
    <vehicle id="627" depart="250.80">
        <route edges="E50 E49 E47 E38 E37 E35 E30 E29 E27"/>
    </vehicle>
    <vehicle id="629" depart="251.60">
        <route edges="E5 E10 E12 E16 E18 E19 E21 E28 E31 E32 E36 E39"/>
    </vehicle>
    <vehicle id="635" depart="254.00">
        <route edges="E32 E36 E39 E41"/>
    </vehicle>
    <vehicle id="636" depart="254.40">
        <route edges="E27 E23"/>
    </vehicle>
    <vehicle id="640" depart="256.00">
        <route edges="E39 E48 gneE22"/>
    </vehicle>
    <vehicle id="641" depart="256.40">
        <route edges="E46 E48 gneE22"/>
    </vehicle>
    <vehicle id="644" depart="257.60">
        <route edges="E46 E38 E37 E35 E34"/>
    </vehicle>
    <vehicle id="646" depart="258.40">
        <route edges="E37 E35 E30 E29 E27 E20 E17 E15"/>
    </vehicle>
    <vehicle id="647" depart="258.80">
        <route edges="E42 E48 gneE22 E53 E57"/>
    </vehicle>
    <vehicle id="648" depart="259.20">
        <route edges="E50 E49 E47 E38 E37 E35 E30 E29 E27 E20 E17 E15 E11"/>
    </vehicle>
    <vehicle id="654" depart="261.60">