<?xml version="1.0" encoding="UTF-8"?>

<!-- generated on 2021-09-29 19:49:05 by Eclipse SUMO duarouter Version 1.9.2
<configuration xmlns:xsi="http://www.w3.org/2001/XMLSchema-instance" xsi:noNamespaceSchemaLocation="http://sumo.dlr.de/xsd/duarouterConfiguration.xsd">

    <input>
        <net-file value="/home/sonic/Desktop/nets/case06/intersection.net.xml"/>
        <route-files value="trips.trips.xml"/>
    </input>

    <output>
        <output-file value="intersection_random36.rou.xml"/>
        <alternatives-output value="intersection_random36.rou.alt.xml"/>
    </output>

    <time>
        <begin value="0"/>
        <end value="18000.0"/>
    </time>

    <report>
        <no-warnings value="true"/>
        <ignore-errors value="true"/>
        <no-step-log value="true"/>
    </report>

</configuration>
-->

<routes xmlns:xsi="http://www.w3.org/2001/XMLSchema-instance" xsi:noNamespaceSchemaLocation="http://sumo.dlr.de/xsd/routes_file.xsd">
    <vehicle id="0" depart="0.00">
        <route edges="E26 E25 E28 E31 E32 E36 E39 E48 gneE22 E53"/>
    </vehicle>
    <vehicle id="6" depart="1.80">
        <route edges="E4 E10 E12 E16 E18 E19 E21 E28 E31 E32 E36 E39 E48"/>
    </vehicle>
    <vehicle id="7" depart="2.10">
        <route edges="E19 E21 E28 E31 E32"/>
    </vehicle>
    <vehicle id="8" depart="2.40">
        <route edges="E30 E29 E27 E20 E17 E15 E11 E9 E2 E0"/>
    </vehicle>
    <vehicle id="9" depart="2.70">
        <route edges="E31 E32 E36 E39 E48 gneE22 E53 E57"/>
    </vehicle>
    <vehicle id="10" depart="3.00">
        <route edges="E30"/>
    </vehicle>
    <vehicle id="13" depart="3.90">
        <route edges="E20"/>
    </vehicle>
    <vehicle id="14" depart="4.20">
        <route edges="E44 E46 E48"/>
    </vehicle>
    <vehicle id="16" depart="4.80">
        <route edges="E5 E10 E12 E16 E18 E19 E21 E28 E31 E32 E36"/>
    </vehicle>
    <vehicle id="20" depart="6.00">
        <route edges="E13 E16 E18 E19"/>
    </vehicle>
    <vehicle id="22" depart="6.60">
        <route edges="E18"/>
    </vehicle>
    <vehicle id="23" depart="6.90">
        <route edges="E29 E27 E20 E17 E15 E11 E9 E2 E0"/>
    </vehicle>
    <vehicle id="31" depart="9.30">
        <route edges="E30 E29 E27 E20 E17 E15 E11 E9"/>
    </vehicle>
    <vehicle id="33" depart="9.90">
        <route edges="E2"/>
    </vehicle>
    <vehicle id="40" depart="12.00">
        <route edges="E47 E38 E37 E35 E30 E29 E27 E20 E17 E15 E11 E9 E6"/>
    </vehicle>
    <vehicle id="48" depart="14.40">
        <route edges="E8 E10"/>
    </vehicle>
    <vehicle id="53" depart="15.90">
        <route edges="E32 E36 E39 E48 gneE22"/>
    </vehicle>
    <vehicle id="54" depart="16.20">
        <route edges="E31 E32 E36 E39"/>
    </vehicle>
    <vehicle id="56" depart="16.80">
        <route edges="E31 E32 E36 E39 E48 gneE22"/>
    </vehicle>
    <vehicle id="58" depart="17.40">
        <route edges="E49 E47 E38 E37 E35 E34"/>
    </vehicle>
    <vehicle id="62" depart="18.60">
        <route edges="E21 E28 E31 E32 E36 E39 E48 gneE22"/>
    </vehicle>
    <vehicle id="64" depart="19.20">
        <route edges="E42 E38 E37 E35 E30 E29 E27 E20 E17 E15"/>
    </vehicle>
    <vehicle id="68" depart="20.40">
        <route edges="E35 E30 E29 E27 E20 E17"/>
    </vehicle>
    <vehicle id="77" depart="23.10">
        <route edges="E49 E47 E38 E37 E35 E30 E29"/>
    </vehicle>
    <vehicle id="82" depart="24.60">
        <route edges="E13 E11 E9 E6"/>
    </vehicle>
    <vehicle id="84" depart="25.20">
        <route edges="E56 E52 E50 E49 E47 E38 E37 E35 E30 E29 E27 E20"/>
    </vehicle>
    <vehicle id="87" depart="26.10">
        <route edges="E25 E20 E17 E15 E11 E9 E2"/>
    </vehicle>
    <vehicle id="89" depart="26.70">
        <route edges="E56 E52 E50 E49 E47 E38 E37 E35 E34"/>
    </vehicle>
    <vehicle id="93" depart="27.90">
        <route edges="E39 E41"/>
    </vehicle>
    <vehicle id="96" depart="28.80">
        <route edges="E11 E9 E6"/>
    </vehicle>
    <vehicle id="100" depart="30.00">
        <route edges="E31 E32 E36 E39 E48 gneE22 E53 E57"/>
    </vehicle>
    <vehicle id="103" depart="30.90">
        <route edges="E17 E15"/>
    </vehicle>
    <vehicle id="107" depart="32.10">
        <route edges="E37 E35 E30 E29 E27"/>
    </vehicle>
    <vehicle id="108" depart="32.40">
        <route edges="E31 E32 E36 E39 E48 gneE22 E53 E57"/>
    </vehicle>
    <vehicle id="110" depart="33.00">
        <route edges="E56 E52 E50 E49 E47 E38"/>
    </vehicle>
    <vehicle id="114" depart="34.20">
        <route edges="E26 E25 E20 E17 E15 E11 E9 E6"/>
    </vehicle>
    <vehicle id="116" depart="34.80">
        <route edges="E12 E16 E18 E19 E21 E24"/>
    </vehicle>
    <vehicle id="117" depart="35.10">
        <route edges="E49 E47"/>
    </vehicle>
    <vehicle id="118" depart="35.40">
        <route edges="E50 E49 E47 E38 E37 E35 E30 E29 E27 E20 E17 E15 E11"/>
    </vehicle>
    <vehicle id="121" depart="36.30">
        <route edges="E49 E47 E38 E37 E35 E34"/>
    </vehicle>
    <vehicle id="127" depart="38.10">
        <route edges="E38 E37 E35 E30 E29 E27 E20 E17 E15 E11 E9 E2 E0"/>
    </vehicle>
    <vehicle id="128" depart="38.40">
        <route edges="E4 E10 E12 E16 E18 E19 E21 E24"/>
    </vehicle>
    <vehicle id="130" depart="39.00">
        <route edges="E50 E49 E47 E38 E37 E35 E30 E29 E27 E20 E17 E15 E11 E9 E2"/>
    </vehicle>
    <vehicle id="131" depart="39.30">
        <route edges="E26 E25 E28 E31 E32 E36 E39 E48 gneE22 E53 E57"/>
    </vehicle>
    <vehicle id="138" depart="41.40">
        <route edges="E52 E50 E49 E47 E38 E37 E35 E30 E29 E27 E20 E17 E15 E11 E9 E2 E0"/>
    </vehicle>
    <vehicle id="140" depart="42.00">
        <route edges="E10 E12 E16 E18 E19 E21 E28 E31 E32 E36 E39 E41"/>
    </vehicle>
    <vehicle id="146" depart="43.80">
        <route edges="E18 E19 E21 E28 E31 E32 E36 E39 E48"/>
    </vehicle>
    <vehicle id="147" depart="44.10">
        <route edges="E8 E2 E0"/>
    </vehicle>
    <vehicle id="148" depart="44.40">
        <route edges="E49 E47 E38 E37 E35 E30 E29 E27 E20"/>
    </vehicle>
    <vehicle id="153" depart="45.90">
        <route edges="E21 E28 E31 E32 E36 E39 E41"/>
    </vehicle>
    <vehicle id="156" depart="46.80">
        <route edges="E31 E32 E36 E39 E48"/>
    </vehicle>
    <vehicle id="158" depart="47.40">
        <route edges="E37 E35 E30"/>
    </vehicle>
    <vehicle id="163" depart="48.90">
        <route edges="E18 E19 E21 E28"/>
    </vehicle>
    <vehicle id="165" depart="49.50">
        <route edges="E31 E32"/>
    </vehicle>
    <vehicle id="169" depart="50.70">
        <route edges="E8 E10"/>
    </vehicle>
    <vehicle id="170" depart="51.00">
        <route edges="E4 E10 E12 E16 E18"/>
    </vehicle>
    <vehicle id="171" depart="51.30">
        <route edges="E22 E28 E31 E32 E36"/>
    </vehicle>
    <vehicle id="174" depart="52.20">
        <route edges="E8 E10 E12 E16 E18 E19 E21 E28 E31 E32 E36 E39 E45 E43"/>
    </vehicle>
    <vehicle id="176" depart="52.80">
        <route edges="E26 E25 E28 E31 E32 E36 E39 E45"/>
    </vehicle>
    <vehicle id="178" depart="53.40">
        <route edges="E31 E32 E36 E39 E48 gneE22 E53 E57 E58"/>
    </vehicle>
    <vehicle id="182" depart="54.60">
        <route edges="E44 E46 E48 gneE22 E53 E57 E58"/>
    </vehicle>
    <vehicle id="183" depart="54.90">
        <route edges="E18 E19 E21 E28 E31 E32 E36 E39 E48"/>
    </vehicle>
    <vehicle id="187" depart="56.10">
        <route edges="E46 E48 gneE22 E53 E55"/>
    </vehicle>
    <vehicle id="188" depart="56.40">
        <route edges="E10 E12"/>
    </vehicle>
    <vehicle id="190" depart="57.00">
        <route edges="E38 E37 E35"/>
    </vehicle>
    <vehicle id="193" depart="57.90">
        <route edges="E52 E50 E49 E47 E38 E37 E35 E30 E29 E27 E20 E17 E15 E11"/>
    </vehicle>
    <vehicle id="202" depart="60.60">
        <route edges="E5 E10 E12 E16 E18"/>
    </vehicle>
    <vehicle id="205" depart="61.50">
        <route edges="E22 E24"/>
    </vehicle>
    <vehicle id="206" depart="61.80">
        <route edges="E8 E10 E12 E16 E18 E19 E21 E28 E31 E32 E36 E39 E48 gneE22 E53 E55"/>
    </vehicle>
    <vehicle id="207" depart="62.10">
        <route edges="E47 E38 E37 E35 E34"/>
    </vehicle>
    <vehicle id="210" depart="63.00">
        <route edges="E5 E10 E12 E16 E18 E19 E21 E28 E31 E32 E36 E39 E48 gneE22 E53 E57 E58"/>
    </vehicle>
    <vehicle id="211" depart="63.30">
        <route edges="E31 E32"/>
    </vehicle>
    <vehicle id="216" depart="64.80">
        <route edges="E54 E52 E50 E49"/>
    </vehicle>
    <vehicle id="217" depart="65.10">
        <route edges="E4 E10 E12 E16 E18 E19"/>
    </vehicle>
    <vehicle id="222" depart="66.60">
        <route edges="E56 E52 E50 E49 E47 E38 E37 E35 E30 E29 E27 E24"/>
    </vehicle>
    <vehicle id="223" depart="66.90">
        <route edges="E8 E10 E12 E16 E18 E19 E21"/>
    </vehicle>
    <vehicle id="225" depart="67.50">
        <route edges="E13 E16 E18 E19 E21 E28 E31 E32 E36"/>
    </vehicle>
    <vehicle id="229" depart="68.70">
        <route edges="E37 E35 E34"/>
    </vehicle>
    <vehicle id="234" depart="70.20">
        <route edges="E54 E52 E50 E49 E47 E38"/>
    </vehicle>
    <vehicle id="240" depart="72.00">
        <route edges="gneE22 E53 E57 E58"/>
    </vehicle>
    <vehicle id="241" depart="72.30">
        <route edges="E19"/>
    </vehicle>
    <vehicle id="242" depart="72.60">
        <route edges="E12 E16 E18"/>
    </vehicle>
    <vehicle id="243" depart="72.90">
        <route edges="E12 E16 E18 E19 E21 E28 E31 E32 E36 E39 E45 E43"/>
    </vehicle>
    <vehicle id="245" depart="73.50">
        <route edges="E1 E4 E10 E12 E16 E18 E19 E21 E24"/>
    </vehicle>
    <vehicle id="247" depart="74.10">
        <route edges="E35 E30 E29 E27 E20 E17 E15 E11 E9 E2 E0"/>
    </vehicle>
    <vehicle id="248" depart="74.40">
        <route edges="E8 E10 E12 E16 E18 E19 E21 E28 E31 E32 E36 E39 E48 gneE22"/>
    </vehicle>
    <vehicle id="254" depart="76.20">
        <route edges="E30 E29 E27 E20 E17 E15 E11 E9 E2 E0"/>
    </vehicle>
    <vehicle id="257" depart="77.10">
        <route edges="E38 E37 E35 E30"/>
    </vehicle>
    <vehicle id="260" depart="78.00">
        <route edges="E48 gneE22 E53 E57"/>
    </vehicle>
    <vehicle id="262" depart="78.60">
        <route edges="E1 E4 E10 E12 E16 E18 E19"/>
    </vehicle>
    <vehicle id="263" depart="78.90">
        <route edges="E5 E10 E12 E16 E18 E19 E21 E24"/>
    </vehicle>
    <vehicle id="266" depart="79.80">
        <route edges="E47 E41"/>
    </vehicle>
    <vehicle id="270" depart="81.00">
        <route edges="E42 E45 E43"/>
    </vehicle>
    <vehicle id="271" depart="81.30">
        <route edges="E25 E20 E17 E15 E11 E9 E2 E0"/>
    </vehicle>
    <vehicle id="276" depart="82.80">
        <route edges="E35 E30 E29 E27 E20"/>
    </vehicle>
    <vehicle id="282" depart="84.60">
        <route edges="E22 E28 E31 E32 E36 E39 E48 gneE22 E53"/>
    </vehicle>
    <vehicle id="288" depart="86.40">
        <route edges="E38"/>
    </vehicle>
    <vehicle id="290" depart="87.00">
        <route edges="E25 E20 E17"/>
    </vehicle>
    <vehicle id="292" depart="87.60">
        <route edges="E49 E47 E45 E43"/>
    </vehicle>
    <vehicle id="293" depart="87.90">
        <route edges="E22 E28 E31 E32 E36 E39 E48 gneE22"/>
    </vehicle>
    <vehicle id="295" depart="88.50">
        <route edges="E29 E27 E20 E17 E15 E11 E9 E6"/>
    </vehicle>
    <vehicle id="299" depart="89.70">
        <route edges="E28 E31 E32"/>
    </vehicle>
    <vehicle id="302" depart="90.60">
        <route edges="E10 E12 E14"/>
    </vehicle>
    <vehicle id="307" depart="92.10">
        <route edges="E35 E30 E29 E27 E20 E17 E15 E11 E9 E2"/>
    </vehicle>
    <vehicle id="314" depart="94.20">
        <route edges="E4 E10 E12 E16 E18 E19 E21 E24"/>
    </vehicle>
    <vehicle id="317" depart="95.10">
        <route edges="E12 E16 E18 E19"/>
    </vehicle>
    <vehicle id="318" depart="95.40">
        <route edges="E8 E10 E12 E16 E18 E19 E21 E28 E31 E32 E36"/>
    </vehicle>
    <vehicle id="321" depart="96.30">
        <route edges="E1 E4 E10 E12"/>
    </vehicle>
    <vehicle id="324" depart="97.20">
        <route edges="E40 E42 E38 E37 E35"/>
    </vehicle>
    <vehicle id="326" depart="97.80">
        <route edges="E21 E28"/>
    </vehicle>
    <vehicle id="328" depart="98.40">
        <route edges="E54 E52 E50 E49 E47 E38 E37 E35"/>
    </vehicle>
    <vehicle id="330" depart="99.00">
        <route edges="E50 E49"/>
    </vehicle>
    <vehicle id="332" depart="99.60">
        <route edges="E54 E52 E50 E49 E47 E38 E37 E35 E30 E29 E27 E20 E17 E15 E14"/>
    </vehicle>
    <vehicle id="336" depart="100.80">
        <route edges="E1 E4 E10 E12 E14"/>
    </vehicle>
    <vehicle id="340" depart="102.00">
        <route edges="E33 E30"/>
    </vehicle>
    <vehicle id="342" depart="102.60">
        <route edges="E12 E16 E18 E19 E21 E28 E31 E32 E36 E39 E41"/>
    </vehicle>
    <vehicle id="347" depart="104.10">
        <route edges="E42 E45"/>
    </vehicle>
    <vehicle id="348" depart="104.40">
        <route edges="E56 E52 E50 E49 E47 E38 E37 E35 E30 E29 E27 E20 E17 E15 E11 E9 E2 E0"/>
    </vehicle>
    <vehicle id="350" depart="105.00">
        <route edges="E54 E52 E50 E49 E47 E38 E37 E35 E30 E29 E27 E20 E17 E15 E14"/>
    </vehicle>
    <vehicle id="354" depart="106.20">
        <route edges="E54 E57"/>
    </vehicle>
    <vehicle id="355" depart="106.50">
        <route edges="gneE22 E53 E57 E58"/>
    </vehicle>
    <vehicle id="356" depart="106.80">
        <route edges="E47 E41"/>
    </vehicle>
    <vehicle id="358" depart="107.40">
        <route edges="E9"/>
    </vehicle>
    <vehicle id="359" depart="107.70">
        <route edges="E44 E46"/>
    </vehicle>
    <vehicle id="360" depart="108.00">
        <route edges="E12 E16 E18 E19 E21 E28"/>
    </vehicle>
    <vehicle id="366" depart="109.80">
        <route edges="E57"/>
    </vehicle>
    <vehicle id="367" depart="110.10">
        <route edges="E40 E42 E38"/>
    </vehicle>
    <vehicle id="372" depart="111.60">
        <route edges="E50 E49 E47 E38"/>
    </vehicle>
    <vehicle id="373" depart="111.90">
        <route edges="E13 E16 E18 E19 E21 E28 E31 E32 E36 E39 E48 gneE22 E53 E55"/>
    </vehicle>
    <vehicle id="374" depart="112.20">
        <route edges="E52 E50 E49 E47 E38 E37 E35 E30 E29 E27 E20"/>
    </vehicle>
    <vehicle id="377" depart="113.10">
        <route edges="E47"/>
    </vehicle>
    <vehicle id="382" depart="114.60">
        <route edges="E18 E19"/>
    </vehicle>
    <vehicle id="383" depart="114.90">
        <route edges="E5 E10 E12 E16 E18"/>
    </vehicle>
    <vehicle id="388" depart="116.40">
        <route edges="E49 E47 E38 E37 E35 E30 E29"/>
    </vehicle>
    <vehicle id="391" depart="117.30">
        <route edges="E25 E20 E17 E15 E11 E9"/>
    </vehicle>
    <vehicle id="394" depart="118.20">
        <route edges="E38 E37 E35 E30 E29 E27 E24"/>
    </vehicle>
    <vehicle id="399" depart="119.70">
        <route edges="E13 E16 E18 E19 E21 E28 E31 E32 E36 E39 E48 gneE22"/>
    </vehicle>
    <vehicle id="402" depart="120.60">
        <route edges="E4 E10 E12"/>
    </vehicle>
    <vehicle id="404" depart="121.20">
        <route edges="E11 E9 E2 E0"/>
    </vehicle>
    <vehicle id="406" depart="121.80">
        <route edges="E5 E10 E12 E16 E18 E19 E21 E28 E31 E32 E36"/>
    </vehicle>
    <vehicle id="410" depart="123.00">
        <route edges="E1 E4 E10 E12 E16 E18 E19 E21 E28 E31 E32 E36 E39 E48 gneE22 E53 E55"/>
    </vehicle>
    <vehicle id="428" depart="128.40">
        <route edges="E35 E30 E29 E27 E20 E17 E15 E11"/>
    </vehicle>
    <vehicle id="432" depart="129.60">
        <route edges="E49 E47 E38"/>
    </vehicle>
    <vehicle id="433" depart="129.90">
        <route edges="E40 E42 E38 E37 E35 E30 E29 E27 E23"/>
    </vehicle>
    <vehicle id="435" depart="130.50">
        <route edges="E49 E47 E38 E37 E35 E30 E29 E27 E20"/>
    </vehicle>
    <vehicle id="438" depart="131.40">
        <route edges="E50 E49 E47 E38 E37 E35 E30 E29 E27"/>
    </vehicle>
    <vehicle id="443" depart="132.90">
        <route edges="E10 E12 E16 E18 E19 E21 E28 E31 E32 E36 E39 E45"/>
    </vehicle>
    <vehicle id="447" depart="134.10">
        <route edges="E26 E25 E28 E31 E32 E36 E39 E45"/>
    </vehicle>
    <vehicle id="450" depart="135.00">
        <route edges="E44 E46 E38 E37 E35 E30 E29 E27 E20"/>
    </vehicle>
    <vehicle id="453" depart="135.90">
        <route edges="E16 E18 E19 E21 E28 E31 E32 E36 E39"/>
    </vehicle>
    <vehicle id="454" depart="136.20">
        <route edges="E25 E28 E31 E32 E36 E39 E48 gneE22 E53 E57"/>
    </vehicle>
    <vehicle id="456" depart="136.80">
        <route edges="E39"/>
    </vehicle>
    <vehicle id="458" depart="137.40">
        <route edges="E19 E21 E28 E31 E32 E34"/>
    </vehicle>
    <vehicle id="461" depart="138.30">
        <route edges="E52 E50"/>
    </vehicle>
    <vehicle id="468" depart="140.40">
        <route edges="E1 E4 E10 E12 E16 E18 E19 E21 E28 E31 E32 E36 E39 E45 E43"/>
    </vehicle>
    <vehicle id="470" depart="141.00">
        <route edges="E56 E52 E50 E49 E47 E38 E37 E35 E30 E29 E27 E20 E17 E15 E11 E9 E7"/>
    </vehicle>
    <vehicle id="472" depart="141.60">
        <route edges="E29 E27 E20 E17 E15"/>
    </vehicle>
    <vehicle id="473" depart="141.90">
        <route edges="E19 E21 E28"/>
    </vehicle>
    <vehicle id="474" depart="142.20">
        <route edges="E25 E28"/>
    </vehicle>
    <vehicle id="475" depart="142.50">
        <route edges="E26 E25 E20 E17 E15 E14"/>
    </vehicle>
    <vehicle id="477" depart="143.10">
        <route edges="E19 E21 E28 E31 E32 E34"/>
    </vehicle>
    <vehicle id="479" depart="143.70">
        <route edges="E54 E57 E58"/>
    </vehicle>
    <vehicle id="480" depart="144.00">
        <route edges="E44 E46 E38 E37 E35 E30 E29 E27 E20 E17 E15 E11 E9 E2 E0"/>
    </vehicle>
    <vehicle id="482" depart="144.60">
        <route edges="E46 E38 E37 E35 E30 E29 E27"/>
    </vehicle>
    <vehicle id="484" depart="145.20">
        <route edges="E27 E24"/>
    </vehicle>
    <vehicle id="488" depart="146.40">
        <route edges="E11"/>
    </vehicle>
    <vehicle id="489" depart="146.70">
        <route edges="E16 E18 E19 E21"/>
    </vehicle>
    <vehicle id="493" depart="147.90">
        <route edges="E28"/>
    </vehicle>
    <vehicle id="497" depart="149.10">
        <route edges="E16 E18 E19 E21"/>
    </vehicle>
    <vehicle id="499" depart="149.70">
        <route edges="E49 E47 E38 E37 E35"/>
    </vehicle>
    <vehicle id="502" depart="150.60">
        <route edges="E46 E38 E37 E35 E30 E29 E27 E20 E17 E15 E14"/>
    </vehicle>
    <vehicle id="503" depart="150.90">
        <route edges="E32 E36 E39 E48 gneE22 E53 E55"/>
    </vehicle>
    <vehicle id="513" depart="153.90">
        <route edges="E31 E32 E36 E39 E48 gneE22 E53 E55"/>
    </vehicle>
    <vehicle id="517" depart="155.10">
        <route edges="E32 E36 E39 E48 gneE22 E53 E55"/>
    </vehicle>
    <vehicle id="518" depart="155.40">
        <route edges="E10 E12 E16 E18"/>
    </vehicle>
    <vehicle id="529" depart="158.70">
        <route edges="E40 E42 E48 gneE22 E53"/>
    </vehicle>
    <vehicle id="530" depart="159.00">
        <route edges="E42 E38 E37 E35 E30 E29 E27"/>
    </vehicle>
    <vehicle id="533" depart="159.90">
        <route edges="E33 E30 E29 E27 E20"/>
    </vehicle>
    <vehicle id="534" depart="160.20">
        <route edges="E42 E38 E37 E35 E30 E29 E27 E20 E17 E15 E11 E9"/>
    </vehicle>
    <vehicle id="535" depart="160.50">
        <route edges="E48 gneE22 E53 E57"/>
    </vehicle>
    <vehicle id="538" depart="161.40">
        <route edges="E31 E32"/>
    </vehicle>
    <vehicle id="539" depart="161.70">
        <route edges="E40 E42 E45 E43"/>
    </vehicle>
    <vehicle id="542" depart="162.60">
        <route edges="E46 E48"/>
    </vehicle>
    <vehicle id="547" depart="164.10">
        <route edges="E42 E38 E37 E35 E30 E29 E27 E20 E17 E15 E11 E9 E7"/>
    </vehicle>
    <vehicle id="549" depart="164.70">
        <route edges="E18 E19 E21 E28 E31 E32 E36"/>
    </vehicle>
    <vehicle id="556" depart="166.80">
        <route edges="E40 E42 E38 E37 E35 E30 E29 E27 E20 E17 E15 E11 E9 E7"/>
    </vehicle>
    <vehicle id="559" depart="167.70">
        <route edges="E22 E20 E17 E15 E14"/>
    </vehicle>
    <vehicle id="561" depart="168.30">
        <route edges="E47 E38 E37 E35 E30 E29 E27 E20 E17 E15 E11 E9"/>
    </vehicle>
    <vehicle id="562" depart="168.60">
        <route edges="E2 E0"/>
    </vehicle>
    <vehicle id="564" depart="169.20">
        <route edges="E25 E20 E17 E15 E14"/>
    </vehicle>
    <vehicle id="566" depart="169.80">
        <route edges="E49 E47 E38 E37 E35 E30 E29 E27 E20 E17 E15 E11 E9 E6"/>
    </vehicle>
    <vehicle id="567" depart="170.10">
        <route edges="E40 E42 E38 E37 E35 E30 E29 E27 E20 E17 E15 E11 E9"/>
    </vehicle>
    <vehicle id="569" depart="170.70">
        <route edges="E32 E36 E39 E48"/>
    </vehicle>
    <vehicle id="570" depart="171.00">
        <route edges="E26 E25"/>
    </vehicle>
    <vehicle id="572" depart="171.60">
        <route edges="E49"/>
    </vehicle>
    <vehicle id="573" depart="171.90">
        <route edges="E30"/>
    </vehicle>
    <vehicle id="579" depart="173.70">
        <route edges="E47 E38 E37 E35 E30 E29 E27 E20 E17 E15 E14"/>
    </vehicle>
    <vehicle id="580" depart="174.00">
        <route edges="E54 E52 E50 E49 E47 E38 E37"/>
    </vehicle>
    <vehicle id="581" depart="174.30">
        <route edges="E18 E19 E21 E28 E31 E32 E34"/>
    </vehicle>
    <vehicle id="582" depart="174.60">
        <route edges="E22 E20 E17 E15 E14"/>
    </vehicle>
    <vehicle id="584" depart="175.20">
        <route edges="E47 E38 E37 E35 E30 E29 E27 E20 E17 E15 E11 E9 E6"/>
    </vehicle>
    <vehicle id="591" depart="177.30">
        <route edges="E52 E50 E49 E47 E38 E37 E35 E30 E29 E27 E20 E17 E15"/>
    </vehicle>
    <vehicle id="596" depart="178.80">
        <route edges="E37 E35 E30 E29 E27 E20 E17 E15 E11 E9 E7"/>
    </vehicle>
    <vehicle id="598" depart="179.40">
        <route edges="E19 E21 E28 E31 E32 E36 E39 E41"/>
    </vehicle>
    <vehicle id="599" depart="179.70">
        <route edges="E49 E47 E38 E37 E35 E30 E29"/>
    </vehicle>
    <vehicle id="601" depart="180.30">
        <route edges="E46 E38 E37 E35 E30 E29 E27 E20 E17 E15 E11 E9"/>
    </vehicle>
    <vehicle id="602" depart="180.60">
        <route edges="E22 E28 E31 E32 E36 E39 E48 gneE22 E53 E57"/>
    </vehicle>
    <vehicle id="605" depart="181.50">
        <route edges="E25 E20 E17 E15 E11 E9 E2"/>
    </vehicle>
    <vehicle id="606" depart="181.80">
        <route edges="E42 E38 E37"/>
    </vehicle>
    <vehicle id="608" depart="182.40">
        <route edges="E21 E28"/>
    </vehicle>
    <vehicle id="610" depart="183.00">
        <route edges="E56 E52"/>
    </vehicle>
    <vehicle id="611" depart="183.30">
        <route edges="E5 E10 E12"/>
    </vehicle>
    <vehicle id="612" depart="183.60">
        <route edges="E38 E37 E35 E30 E29 E27 E20 E17 E15 E14"/>
    </vehicle>
    <vehicle id="613" depart="183.90">
        <route edges="E16 E18 E19 E21 E28 E31 E32 E36 E39 E48 gneE22"/>
    </vehicle>
    <vehicle id="614" depart="184.20">
        <route edges="E13 E11 E9"/>
    </vehicle>
    <vehicle id="615" depart="184.50">
        <route edges="E19 E21 E28 E31"/>
    </vehicle>
    <vehicle id="616" depart="184.80">
        <route edges="E54 E52 E50 E49 E47 E38 E37 E35 E30 E29 E27 E20 E17"/>
    </vehicle>
    <vehicle id="617" depart="185.10">
        <route edges="E16 E18 E19 E21 E28 E31 E32 E34"/>
    </vehicle>
    <vehicle id="621" depart="186.30">
        <route edges="E52"/>
    </vehicle>
    <vehicle id="623" depart="186.90">
        <route edges="E28"/>
    </vehicle>
    <vehicle id="625" depart="187.50">
        <route edges="E37 E35 E30 E29 E27 E20 E17 E15 E11"/>
    </vehicle>
    <vehicle id="626" depart="187.80">
        <route edges="E42"/>
    </vehicle>
    <vehicle id="632" depart="189.60">
        <route edges="E38"/>
    </vehicle>
    <vehicle id="633" depart="189.90">
        <route edges="E38 E37 E35 E30 E29 E27 E24"/>
    </vehicle>
    <vehicle id="636" depart="190.80">
        <route edges="E44 E46 E41"/>
    </vehicle>
    <vehicle id="638" depart="191.40">
        <route edges="E5 E10 E12 E16 E18 E19 E21 E23"/>
    </vehicle>
    <vehicle id="644" depart="193.20">
        <route edges="E25 E28 E31 E32"/>
    </vehicle>
    <vehicle id="645" depart="193.50">
        <route edges="E50 E49 E47 E38 E37 E35 E30 E29"/>
    </vehicle>
    <vehicle id="647" depart="194.10">
        <route edges="E26 E25 E28 E31 E32 E36 E39 E48 gneE22 E53 E55"/>
    </vehicle>
    <vehicle id="650" depart="195.00">
        <route edges="E35 E30 E29 E27 E20 E17 E15 E14"/>
    </vehicle>
    <vehicle id="651" depart="195.30">
        <route edges="E56 E52 E50 E49 E47 E38 E37 E35 E30 E29 E27 E20 E17 E15 E11 E9 E6"/>
    </vehicle>
    <vehicle id="652" depart="195.60">
        <route edges="E52 E50 E49 E47 E38 E37 E35 E30 E29 E27 E20 E17 E15 E11 E9 E2"/>
    </vehicle>
    <vehicle id="654" depart="196.20">
        <route edges="E10 E12 E16 E18 E19 E21 E28 E31 E32 E36 E39 E48 gneE22 E53 E57"/>
    </vehicle>
    <vehicle id="655" depart="196.50">
        <route edges="E13 E16 E18"/>
    </vehicle>
    <vehicle id="657" depart="197.10">
        <route edges="E33 E30 E29 E27 E20 E17 E15 E11 E9 E7"/>
    </vehicle>
    <vehicle id="659" depart="197.70">
        <route edges="E13 E16 E18 E19 E21 E24"/>
    </vehicle>
    <vehicle id="660" depart="198.00">
        <route edges="E42 E38 E37 E35 E30"/>
    </vehicle>
    <vehicle id="662" depart="198.60">
        <route edges="E26 E25 E23"/>
    </vehicle>
    <vehicle id="666" depart="199.80">
        <route edges="E50 E49 E47 E38 E37 E35 E30 E29 E27 E20 E17 E15"/>
    </vehicle>
    <vehicle id="668" depart="200.40">
        <route edges="E21 E28 E31 E32 E36 E39 E45 E43"/>
    </vehicle>
    <vehicle id="669" depart="200.70">
        <route edges="E39 E48 gneE22 E53 E57"/>
    </vehicle>
    <vehicle id="670" depart="201.00">
        <route edges="E46 E38 E37 E35 E30"/>
    </vehicle>
    <vehicle id="672" depart="201.60">
        <route edges="E52 E50 E49"/>
    </vehicle>
    <vehicle id="682" depart="204.60">
        <route edges="E32 E36 E39 E41"/>
    </vehicle>
    <vehicle id="686" depart="205.80">
        <route edges="E42 E38 E37 E35 E30 E29 E27 E23"/>
    </vehicle>
    <vehicle id="692" depart="207.60">
        <route edges="E46 E38 E37 E35 E34"/>
    </vehicle>
    <vehicle id="693" depart="207.90">
        <route edges="E12 E16 E18 E19 E21 E24"/>
    </vehicle>
    <vehicle id="694" depart="208.20">
        <route edges="E17 E15 E11 E9 E2 E0"/>
    </vehicle>
    <vehicle id="697" depart="209.10">
        <route edges="E27"/>
    </vehicle>
    <vehicle id="700" depart="210.00">
        <route edges="E56 E52 E50 E49 E47 E38 E37 E35 E30 E29 E27 E20"/>
    </vehicle>
    <vehicle id="702" depart="210.60">
        <route edges="E54 E52 E50 E49 E47 E38 E37 E35 E30"/>
    </vehicle>
    <vehicle id="704" depart="211.20">
        <route edges="E21 E24"/>
    </vehicle>
    <vehicle id="705" depart="211.50">
        <route edges="E21 E28 E31 E32 E36 E39 E41"/>
    </vehicle>
    <vehicle id="706" depart="211.80">
        <route edges="E47 E38 E37 E35 E30 E29 E27"/>
    </vehicle>
    <vehicle id="711" depart="213.30">
        <route edges="E40 E42 E48 gneE22 E53 E57 E58"/>
    </vehicle>
    <vehicle id="713" depart="213.90">
        <route edges="E39 E48 gneE22"/>
    </vehicle>
    <vehicle id="715" depart="214.50">
        <route edges="E32 E36 E39 E45 E43"/>
    </vehicle>
    <vehicle id="717" depart="215.10">
        <route edges="E30 E29 E27 E20 E17 E15 E11 E9"/>
    </vehicle>
    <vehicle id="719" depart="215.70">
        <route edges="E13 E16 E18 E19 E21 E28 E31"/>
    </vehicle>
    <vehicle id="722" depart="216.60">
        <route edges="E4 E10 E12 E16 E18"/>
    </vehicle>
    <vehicle id="724" depart="217.20">
        <route edges="E54 E52 E50 E49 E47 E38 E37 E35 E30 E29 E27 E20 E17 E15 E11 E9"/>
    </vehicle>
    <vehicle id="725" depart="217.50">
        <route edges="E38 E37 E35 E30 E29 E27 E20 E17 E15 E11 E9 E7"/>
    </vehicle>
    <vehicle id="726" depart="217.80">
        <route edges="E13 E16 E18"/>
    </vehicle>
    <vehicle id="728" depart="218.40">
        <route edges="E46 E38"/>
    </vehicle>
    <vehicle id="732" depart="219.60">
        <route edges="E35 E34"/>
    </vehicle>
    <vehicle id="733" depart="219.90">
        <route edges="E50 E49 E47 E38 E37 E35 E30 E29 E27 E20 E17"/>
    </vehicle>
    <vehicle id="735" depart="220.50">
        <route edges="E52 E50 E49 E47 E38 E37 E35 E30 E29 E27 E20 E17 E15 E11 E9 E2"/>
    </vehicle>
    <vehicle id="739" depart="221.70">
        <route edges="E26 E25 E20 E17 E15 E11 E9 E7"/>
    </vehicle>
    <vehicle id="748" depart="224.40">
        <route edges="E12 E16 E18 E19 E21 E28 E31 E32 E36 E39 E48 gneE22 E53 E55"/>
    </vehicle>
    <vehicle id="749" depart="224.70">
        <route edges="E1 E4 E10 E12 E16 E18 E19 E21 E28 E31"/>
    </vehicle>
    <vehicle id="752" depart="225.60">
        <route edges="E50 E49 E47 E38 E37 E35 E30 E29 E27 E23"/>
    </vehicle>
    <vehicle id="753" depart="225.90">
        <route edges="E54 E52 E50 E49 E47 E38 E37 E35 E30 E29 E27 E20 E17 E15 E11 E9 E7"/>
    </vehicle>
    <vehicle id="755" depart="226.50">
        <route edges="E21 E28 E31 E32 E36"/>
    </vehicle>
    <vehicle id="757" depart="227.10">
        <route edges="E52 E50 E49 E47 E38 E37 E35 E30 E29 E27 E20 E17"/>
    </vehicle>
    <vehicle id="758" depart="227.40">