<?xml version="1.0" encoding="UTF-8"?>

<!-- generated on 2021-09-29 19:48:47 by Eclipse SUMO duarouter Version 1.9.2
<configuration xmlns:xsi="http://www.w3.org/2001/XMLSchema-instance" xsi:noNamespaceSchemaLocation="http://sumo.dlr.de/xsd/duarouterConfiguration.xsd">

    <input>
        <net-file value="/home/sonic/Desktop/nets/case06/intersection.net.xml"/>
        <route-files value="trips.trips.xml"/>
    </input>

    <output>
        <output-file value="intersection_random27.rou.xml"/>
        <alternatives-output value="intersection_random27.rou.alt.xml"/>
    </output>

    <time>
        <begin value="0"/>
        <end value="18000.0"/>
    </time>

    <report>
        <no-warnings value="true"/>
        <ignore-errors value="true"/>
        <no-step-log value="true"/>
    </report>

</configuration>
-->

<routes xmlns:xsi="http://www.w3.org/2001/XMLSchema-instance" xsi:noNamespaceSchemaLocation="http://sumo.dlr.de/xsd/routes_file.xsd">
    <vehicle id="1" depart="0.40">
        <route edges="E27 E20 E17 E15 E11 E9 E2"/>
    </vehicle>
    <vehicle id="2" depart="0.80">
        <route edges="E42 E38 E37 E35 E30 E29 E27 E20 E17 E15 E11 E9 E6"/>
    </vehicle>
    <vehicle id="3" depart="1.20">
        <route edges="E18 E19"/>
    </vehicle>
    <vehicle id="9" depart="3.60">
        <route edges="E19 E21 E28 E31 E32 E36 E39 E48 gneE22 E53"/>
    </vehicle>
    <vehicle id="10" depart="4.00">
        <route edges="E13 E16 E18 E19 E21 E28 E31 E32 E36 E39 E45"/>
    </vehicle>
    <vehicle id="14" depart="5.60">
        <route edges="E27 E24"/>
    </vehicle>
    <vehicle id="17" depart="6.80">
        <route edges="E20 E17 E15"/>
    </vehicle>
    <vehicle id="18" depart="7.20">
        <route edges="E13 E16 E18 E19 E21 E28 E31 E32 E34"/>
    </vehicle>
    <vehicle id="19" depart="7.60">
        <route edges="E56 E52 E50 E49 E47 E38 E37 E35 E30 E29 E27 E20 E17"/>
    </vehicle>
    <vehicle id="22" depart="8.80">
        <route edges="E47 E45 E43"/>
    </vehicle>
    <vehicle id="27" depart="10.80">
        <route edges="E36 E39 E41"/>
    </vehicle>
    <vehicle id="30" depart="12.00">
        <route edges="E33 E36 E39 E45"/>
    </vehicle>
    <vehicle id="33" depart="13.20">
        <route edges="E30"/>
    </vehicle>
    <vehicle id="34" depart="13.60">
        <route edges="E21 E23"/>
    </vehicle>
    <vehicle id="37" depart="14.80">
        <route edges="E46 E38 E37 E35 E30 E29 E27"/>
    </vehicle>
    <vehicle id="41" depart="16.40">
        <route edges="E20 E17 E15"/>
    </vehicle>
    <vehicle id="45" depart="18.00">
        <route edges="E18 E19 E21 E28 E31"/>
    </vehicle>
    <vehicle id="50" depart="20.00">
        <route edges="E8 E10 E12 E16 E18 E19"/>
    </vehicle>
    <vehicle id="52" depart="20.80">
        <route edges="E36 E39 E48 gneE22 E53 E55"/>
    </vehicle>
    <vehicle id="53" depart="21.20">
        <route edges="E12 E16 E18 E19 E21 E28 E31 E32"/>
    </vehicle>
    <vehicle id="55" depart="22.00">
        <route edges="E5 E10 E12 E16"/>
    </vehicle>
    <vehicle id="57" depart="22.80">
        <route edges="E10 E12 E16 E18"/>
    </vehicle>
    <vehicle id="58" depart="23.20">
        <route edges="E1 E4 E10 E12"/>
    </vehicle>
    <vehicle id="67" depart="26.80">
        <route edges="E40 E42 E38 E37 E35 E30 E29 E27 E20 E17 E15 E11 E9 E7"/>
    </vehicle>
    <vehicle id="69" depart="27.60">
        <route edges="E19 E21 E24"/>
    </vehicle>
    <vehicle id="71" depart="28.40">
        <route edges="E31 E32 E36 E39"/>
    </vehicle>
    <vehicle id="72" depart="28.80">
        <route edges="E50 E49 E47 E38 E37 E35 E30 E29 E27 E20 E17 E15 E14"/>
    </vehicle>
    <vehicle id="77" depart="30.80">
        <route edges="E29 E27"/>
    </vehicle>
    <vehicle id="84" depart="33.60">
        <route edges="E37 E35 E30 E29 E27 E20 E17 E15 E14"/>
    </vehicle>
    <vehicle id="88" depart="35.20">
        <route edges="E25 E20 E17 E15 E11 E9 E6"/>
    </vehicle>
    <vehicle id="91" depart="36.40">
        <route edges="E52 E50 E49 E47 E38 E37 E35 E34"/>
    </vehicle>
    <vehicle id="93" depart="37.20">
        <route edges="E56 E52 E50 E49 E47 E38 E37 E35 E30 E29 E27"/>
    </vehicle>
    <vehicle id="94" depart="37.60">
        <route edges="E32"/>
    </vehicle>
    <vehicle id="96" depart="38.40">
        <route edges="E4 E10 E12 E16 E18 E19 E21 E23"/>
    </vehicle>
    <vehicle id="97" depart="38.80">
        <route edges="E44 E46 E48 gneE22 E53"/>
    </vehicle>
    <vehicle id="100" depart="40.00">
        <route edges="E4 E10 E12 E16 E18 E19 E21 E28 E31 E32 E36"/>
    </vehicle>
    <vehicle id="105" depart="42.00">
        <route edges="E4 E10 E12 E16 E18 E19 E21 E28 E31 E32 E36 E39 E48 gneE22 E53 E57"/>
    </vehicle>
    <vehicle id="106" depart="42.40">
        <route edges="E35 E30 E29 E27 E20 E17 E15 E11 E9"/>
    </vehicle>
    <vehicle id="111" depart="44.40">
        <route edges="E54 E52 E50 E49 E47 E38 E37 E35 E30 E29 E27 E20 E17"/>
    </vehicle>
    <vehicle id="117" depart="46.80">
        <route edges="E29 E27 E20 E17 E15 E14"/>
    </vehicle>
    <vehicle id="118" depart="47.20">
        <route edges="E12 E16"/>
    </vehicle>
    <vehicle id="119" depart="47.60">
        <route edges="E40 E42 E45"/>
    </vehicle>
    <vehicle id="125" depart="50.00">
        <route edges="E22 E28 E31 E32 E36 E39"/>
    </vehicle>
    <vehicle id="132" depart="52.80">
        <route edges="E47 E38 E37 E35 E30 E29 E27 E20 E17 E15 E11 E9 E6"/>
    </vehicle>
    <vehicle id="133" depart="53.20">
        <route edges="E40 E42"/>
    </vehicle>
    <vehicle id="134" depart="53.60">
        <route edges="E12 E16 E18 E19 E21 E28 E31 E32 E36 E39"/>
    </vehicle>
    <vehicle id="139" depart="55.60">
        <route edges="E38 E37 E35 E30 E29 E27 E20 E17 E15 E11 E9"/>
    </vehicle>
    <vehicle id="140" depart="56.00">
        <route edges="E49 E47 E45 E43"/>
    </vehicle>
    <vehicle id="141" depart="56.40">
        <route edges="E16 E18 E19 E21 E24"/>
    </vehicle>
    <vehicle id="142" depart="56.80">
        <route edges="E5 E10 E12 E16 E18 E19 E21 E28 E31 E32 E34"/>
    </vehicle>
    <vehicle id="143" depart="57.20">
        <route edges="E47 E41"/>
    </vehicle>
    <vehicle id="144" depart="57.60">
        <route edges="E1 E4 E10 E12 E16 E18"/>
    </vehicle>
    <vehicle id="146" depart="58.40">
        <route edges="E30 E29 E27 E20"/>
    </vehicle>
    <vehicle id="148" depart="59.20">
        <route edges="E44 E46 E48 gneE22"/>
    </vehicle>
    <vehicle id="153" depart="61.20">
        <route edges="gneE22 E53 E57 E58"/>
    </vehicle>
    <vehicle id="155" depart="62.00">
        <route edges="E47 E38 E37 E35 E30 E29 E27 E20 E17 E15 E11 E9 E2 E0"/>
    </vehicle>
    <vehicle id="157" depart="62.80">
        <route edges="E10 E12"/>
    </vehicle>
    <vehicle id="161" depart="64.40">
        <route edges="E47 E38 E37 E35 E30 E29 E27 E20 E17 E15 E14"/>
    </vehicle>
    <vehicle id="163" depart="65.20">
        <route edges="E25 E28 E31 E32"/>
    </vehicle>
    <vehicle id="164" depart="65.60">
        <route edges="E21"/>
    </vehicle>
    <vehicle id="166" depart="66.40">
        <route edges="E25 E20 E17"/>
    </vehicle>
    <vehicle id="169" depart="67.60">
        <route edges="E40 E42 E48 gneE22 E53 E57 E58"/>
    </vehicle>
    <vehicle id="171" depart="68.40">
        <route edges="E4 E10 E12 E16 E18 E19 E21 E24"/>
    </vehicle>
    <vehicle id="173" depart="69.20">
        <route edges="E31 E32 E36 E39 E45"/>
    </vehicle>
    <vehicle id="175" depart="70.00">
        <route edges="E42 E38 E37 E35"/>
    </vehicle>
    <vehicle id="176" depart="70.40">
        <route edges="E50 E49 E47 E38 E37 E35 E30 E29 E27"/>
    </vehicle>
    <vehicle id="181" depart="72.40">
        <route edges="E31 E32 E34"/>
    </vehicle>
    <vehicle id="187" depart="74.80">
        <route edges="E42 E38 E37 E35 E30"/>
    </vehicle>
    <vehicle id="192" depart="76.80">
        <route edges="E56 E52 E50 E49 E47 E38 E37 E35 E30 E29 E27 E20 E17 E15 E11 E9"/>
    </vehicle>
    <vehicle id="193" depart="77.20">
        <route edges="E50 E49 E47 E38 E37 E35 E30 E29 E27 E20 E17 E15 E11"/>
    </vehicle>
    <vehicle id="196" depart="78.40">
        <route edges="E19 E21 E28 E31 E32 E36 E39 E48 gneE22 E53 E57"/>
    </vehicle>
    <vehicle id="197" depart="78.80">
        <route edges="E21 E28 E31 E32 E36 E39"/>
    </vehicle>
    <vehicle id="198" depart="79.20">
        <route edges="E25 E28 E31 E32 E36 E39 E45"/>
    </vehicle>
    <vehicle id="206" depart="82.40">
        <route edges="E1 E4 E10 E12 E16 E18 E19"/>
    </vehicle>
    <vehicle id="207" depart="82.80">
        <route edges="E37 E35"/>
    </vehicle>
    <vehicle id="210" depart="84.00">
        <route edges="E10 E12 E16 E18 E19 E21"/>
    </vehicle>
    <vehicle id="211" depart="84.40">
        <route edges="E42 E38 E37"/>
    </vehicle>
    <vehicle id="212" depart="84.80">
        <route edges="E19 E21 E28 E31 E32"/>
    </vehicle>
    <vehicle id="213" depart="85.20">
        <route edges="E33 E30 E29"/>
    </vehicle>
    <vehicle id="214" depart="85.60">
        <route edges="E33 E30 E29 E27 E20 E17 E15 E11 E9"/>
    </vehicle>
    <vehicle id="217" depart="86.80">
        <route edges="E26 E25 E28 E31"/>
    </vehicle>
    <vehicle id="219" depart="87.60">
        <route edges="E52 E50 E49 E47 E38 E37 E35"/>
    </vehicle>
    <vehicle id="221" depart="88.40">
        <route edges="E50"/>
    </vehicle>
    <vehicle id="223" depart="89.20">
        <route edges="E12 E16 E18 E19 E21 E28 E31 E32 E36 E39 E48 gneE22"/>
    </vehicle>
    <vehicle id="224" depart="89.60">
        <route edges="E54 E57 E58"/>
    </vehicle>
    <vehicle id="227" depart="90.80">
        <route edges="E33 E30 E29 E27 E20"/>
    </vehicle>
    <vehicle id="228" depart="91.20">
        <route edges="E49 E47 E38 E37 E35 E30 E29 E27 E20 E17 E15 E11 E9 E2"/>
    </vehicle>
    <vehicle id="230" depart="92.00">
        <route edges="E12 E16 E18 E19 E21 E28 E31 E32 E36 E39"/>
    </vehicle>
    <vehicle id="231" depart="92.40">
        <route edges="E54 E52 E50 E49 E47 E45 E43"/>
    </vehicle>
    <vehicle id="234" depart="93.60">
        <route edges="E18 E19 E21 E28 E31 E32 E36 E39 E48"/>
    </vehicle>
    <vehicle id="236" depart="94.40">
        <route edges="E8 E10 E12 E16 E18 E19 E21 E28 E31 E32"/>
    </vehicle>
    <vehicle id="242" depart="96.80">
        <route edges="E47 E38 E37 E35 E34"/>
    </vehicle>
    <vehicle id="246" depart="98.40">
        <route edges="E4 E10 E12 E16 E18 E19 E21 E28 E31 E32 E36 E39 E48 gneE22 E53 E57"/>
    </vehicle>
    <vehicle id="247" depart="98.80">
        <route edges="E13 E16 E18 E19 E21 E24"/>
    </vehicle>
    <vehicle id="255" depart="102.00">
        <route edges="E8 E10 E12 E16 E18 E19 E21 E28 E31 E32 E36 E39 E45 E43"/>
    </vehicle>
    <vehicle id="259" depart="103.60">
        <route edges="E10 E12 E16 E18 E19 E21 E28 E31 E32 E36 E39 E48 gneE22 E53 E55"/>
    </vehicle>
    <vehicle id="260" depart="104.00">
        <route edges="E47 E38 E37 E35 E30 E29 E27 E20 E17 E15 E11 E9 E6"/>
    </vehicle>
    <vehicle id="261" depart="104.40">
        <route edges="E52 E50 E49 E47 E45"/>
    </vehicle>
    <vehicle id="262" depart="104.80">
        <route edges="E13 E16 E18 E19 E21 E28 E31 E32 E36 E39 E41"/>
    </vehicle>
    <vehicle id="263" depart="105.20">
        <route edges="E48 gneE22 E53"/>
    </vehicle>
    <vehicle id="264" depart="105.60">
        <route edges="E49 E47 E38 E37"/>
    </vehicle>
    <vehicle id="269" depart="107.60">
        <route edges="E38 E37 E35 E30 E29 E27"/>
    </vehicle>
    <vehicle id="273" depart="109.20">
        <route edges="E38 E37 E35 E30 E29 E27 E20 E17 E15 E11 E9 E2"/>
    </vehicle>
    <vehicle id="274" depart="109.60">
        <route edges="E50 E49 E47 E38 E37 E35 E30 E29 E27 E24"/>
    </vehicle>
    <vehicle id="280" depart="112.00">
        <route edges="E18 E19"/>
    </vehicle>
    <vehicle id="288" depart="115.20">
        <route edges="E40 E42 E38 E37 E35 E30 E29 E27 E24"/>
    </vehicle>
    <vehicle id="292" depart="116.80">
        <route edges="E38 E37 E35 E30 E29 E27 E24"/>
    </vehicle>
    <vehicle id="294" depart="117.60">
        <route edges="E52 E50 E49 E47 E38 E37 E35 E30 E29 E27 E23"/>
    </vehicle>
    <vehicle id="295" depart="118.00">
        <route edges="E46 E38 E37 E35 E30 E29 E27 E20 E17 E15 E11 E9 E7"/>
    </vehicle>
    <vehicle id="296" depart="118.40">
        <route edges="E46 E38"/>
    </vehicle>
    <vehicle id="299" depart="119.60">
        <route edges="E46 E41"/>
    </vehicle>
    <vehicle id="302" depart="120.80">
        <route edges="E42 E38 E37 E35 E30"/>
    </vehicle>
    <vehicle id="306" depart="122.40">
        <route edges="E38 E37 E35 E30 E29"/>
    </vehicle>
    <vehicle id="307" depart="122.80">
        <route edges="E38 E37 E35 E30 E29 E27 E20 E17"/>
    </vehicle>
    <vehicle id="309" depart="123.60">
        <route edges="E28 E31 E32 E34"/>
    </vehicle>
    <vehicle id="311" depart="124.40">
        <route edges="E13 E16 E18 E19 E21 E28 E31 E32 E36 E39 E48 gneE22 E53 E55"/>
    </vehicle>
    <vehicle id="314" depart="125.60">
        <route edges="E50"/>
    </vehicle>
    <vehicle id="315" depart="126.00">
        <route edges="E38 E37 E35 E34"/>
    </vehicle>
    <vehicle id="316" depart="126.40">
        <route edges="E49 E47 E38 E37 E35 E30 E29 E27 E20 E17 E15"/>
    </vehicle>
    <vehicle id="317" depart="126.80">
        <route edges="E19 E21 E28 E31 E32 E36 E39 E48 gneE22 E53 E57"/>
    </vehicle>
    <vehicle id="318" depart="127.20">
        <route edges="E28 E31 E32 E36 E39 E48 gneE22"/>
    </vehicle>
    <vehicle id="319" depart="127.60">
        <route edges="E47 E38 E37 E35 E30 E29 E27"/>
    </vehicle>
    <vehicle id="321" depart="128.40">
        <route edges="E12 E16 E18 E19 E21 E28 E31 E32 E36 E39 E48 gneE22 E53 E57"/>
    </vehicle>
    <vehicle id="323" depart="129.20">
        <route edges="E31 E32 E36 E39 E48 gneE22 E53 E55"/>
    </vehicle>
    <vehicle id="324" depart="129.60">
        <route edges="E44 E46 E38 E37 E35 E30 E29 E27 E20 E17 E15 E11 E9 E2"/>
    </vehicle>
    <vehicle id="325" depart="130.00">
        <route edges="E12 E16 E18 E19 E21 E28"/>
    </vehicle>
    <vehicle id="326" depart="130.40">
        <route edges="E20 E17 E15 E11 E9 E2"/>
    </vehicle>
    <vehicle id="328" depart="131.20">
        <route edges="E18 E19 E21 E28 E31 E32"/>
    </vehicle>
    <vehicle id="331" depart="132.40">
        <route edges="E31 E32 E36 E39 E48 gneE22 E53"/>
    </vehicle>
    <vehicle id="335" depart="134.00">
        <route edges="E42 E38 E37 E35 E30 E29 E27 E20 E17 E15 E11 E9"/>
    </vehicle>
    <vehicle id="338" depart="135.20">
        <route edges="E46"/>
    </vehicle>
    <vehicle id="340" depart="136.00">
        <route edges="E21 E28 E31 E32 E36 E39 E48 gneE22 E53 E57 E58"/>
    </vehicle>
    <vehicle id="342" depart="136.80">
        <route edges="E22 E20 E17 E15 E11 E9 E2 E0"/>
    </vehicle>
    <vehicle id="344" depart="137.60">
        <route edges="E22 E28 E31 E32 E36 E39 E48"/>
    </vehicle>
    <vehicle id="345" depart="138.00">
        <route edges="E13 E16 E18 E19 E21 E28 E31 E32 E36 E39 E48 gneE22 E53"/>
    </vehicle>
    <vehicle id="348" depart="139.20">
        <route edges="E13 E16 E18 E19"/>
    </vehicle>
    <vehicle id="353" depart="141.20">
        <route edges="E19 E21 E28 E31 E32 E36 E39"/>
    </vehicle>
    <vehicle id="354" depart="141.60">
        <route edges="E17 E15 E11"/>
    </vehicle>
    <vehicle id="359" depart="143.60">
        <route edges="E13 E16 E18 E19 E21 E28 E31 E32 E36 E39 E48 gneE22 E53 E57 E58"/>
    </vehicle>
    <vehicle id="360" depart="144.00">
        <route edges="E49 E47 E38 E37 E35 E30 E29 E27 E24"/>
    </vehicle>
    <vehicle id="361" depart="144.40">
        <route edges="E49 E47 E38 E37 E35 E34"/>
    </vehicle>
    <vehicle id="362" depart="144.80">
        <route edges="E4 E10 E12 E16 E18 E19 E21 E28 E31"/>
    </vehicle>
    <vehicle id="363" depart="145.20">
        <route edges="E9 E7"/>
    </vehicle>
    <vehicle id="364" depart="145.60">
        <route edges="E50 E49 E47 E38 E37 E35 E30 E29 E27 E20 E17 E15"/>
    </vehicle>
    <vehicle id="368" depart="147.20">
        <route edges="E35"/>
    </vehicle>
    <vehicle id="371" depart="148.40">
        <route edges="E52 E50 E49 E47 E45 E43"/>
    </vehicle>
    <vehicle id="374" depart="149.60">
        <route edges="E5 E10 E12 E16 E18 E19 E21 E28 E31 E32 E36"/>
    </vehicle>
    <vehicle id="375" depart="150.00">
        <route edges="E42 E38 E37 E35 E30 E29"/>
    </vehicle>
    <vehicle id="377" depart="150.80">
        <route edges="E25 E20 E17 E15 E11 E9 E7"/>
    </vehicle>
    <vehicle id="379" depart="151.60">
        <route edges="E54 E52 E50 E49 E47 E38 E37 E35 E30 E29 E27"/>
    </vehicle>
    <vehicle id="389" depart="155.60">
        <route edges="E12 E16 E18 E19 E21 E28 E31"/>
    </vehicle>
    <vehicle id="394" depart="157.60">
        <route edges="E52 E50 E49 E47 E38 E37 E35 E30 E29 E27 E20 E17 E15 E14"/>
    </vehicle>
    <vehicle id="401" depart="160.40">
        <route edges="E47"/>
    </vehicle>
    <vehicle id="403" depart="161.20">
        <route edges="E39 E48 gneE22 E53 E55"/>
    </vehicle>
    <vehicle id="405" depart="162.00">
        <route edges="E18 E19 E21 E28 E31 E32 E36 E39 E48"/>
    </vehicle>
    <vehicle id="411" depart="164.40">
        <route edges="E47 E38 E37 E35"/>
    </vehicle>
    <vehicle id="413" depart="165.20">
        <route edges="E20 E17 E15 E11 E9 E2"/>
    </vehicle>
    <vehicle id="416" depart="166.40">
        <route edges="E15 E11 E9 E6"/>
    </vehicle>
    <vehicle id="420" depart="168.00">
        <route edges="E44 E46 E38"/>
    </vehicle>
    <vehicle id="424" depart="169.60">
        <route edges="E19 E21 E28 E31 E32 E36 E39 E48 gneE22 E53 E57 E58"/>
    </vehicle>
    <vehicle id="425" depart="170.00">
        <route edges="E40 E42 E38 E37 E35 E30"/>
    </vehicle>
    <vehicle id="429" depart="171.60">
        <route edges="E44 E46 E38 E37 E35 E30 E29 E27 E20 E17 E15"/>
    </vehicle>
    <vehicle id="430" depart="172.00">
        <route edges="E26 E25 E28 E31 E32 E36"/>
    </vehicle>
    <vehicle id="434" depart="173.60">
        <route edges="E47 E38 E37 E35 E30 E29 E27 E20 E17 E15 E11 E9"/>
    </vehicle>
    <vehicle id="437" depart="174.80">
        <route edges="E36 E39 E48 gneE22 E53 E57"/>
    </vehicle>
    <vehicle id="439" depart="175.60">
        <route edges="E39 E48 gneE22 E53 E55"/>
    </vehicle>
    <vehicle id="442" depart="176.80">
        <route edges="E49"/>
    </vehicle>
    <vehicle id="443" depart="177.20">
        <route edges="E54 E52 E50 E49 E47 E38 E37 E35 E30 E29 E27 E20 E17 E15 E11 E9 E6"/>
    </vehicle>
    <vehicle id="444" depart="177.60">
        <route edges="E35 E34"/>
    </vehicle>
    <vehicle id="446" depart="178.40">
        <route edges="E30 E29 E27"/>
    </vehicle>
    <vehicle id="448" depart="179.20">
        <route edges="E22 E28 E31 E32 E36 E39"/>
    </vehicle>
    <vehicle id="449" depart="179.60">
        <route edges="E13 E16 E18 E19 E21 E28 E31 E32 E34"/>
    </vehicle>
    <vehicle id="452" depart="180.80">
        <route edges="E1 E4 E10 E12 E14"/>
    </vehicle>
    <vehicle id="454" depart="181.60">
        <route edges="E13 E16 E18 E19 E21 E28"/>
    </vehicle>
    <vehicle id="455" depart="182.00">
        <route edges="E20 E17 E15 E14"/>
    </vehicle>
    <vehicle id="458" depart="183.20">
        <route edges="E12 E16 E18 E19 E21 E28 E31 E32 E36 E39 E45 E43"/>
    </vehicle>
    <vehicle id="459" depart="183.60">
        <route edges="E15 E11 E9"/>
    </vehicle>
    <vehicle id="463" depart="185.20">
        <route edges="E42 E38 E37 E35 E30 E29 E27 E20 E17 E15 E11 E9 E2 E0"/>
    </vehicle>
    <vehicle id="470" depart="188.00">
        <route edges="E42 E38 E37 E35 E30 E29 E27 E24"/>
    </vehicle>
    <vehicle id="473" depart="189.20">
        <route edges="E50 E49 E47 E45"/>
    </vehicle>
    <vehicle id="476" depart="190.40">
        <route edges="E8 E2"/>
    </vehicle>
    <vehicle id="478" depart="191.20">
        <route edges="E36 E39 E48 gneE22 E53"/>
    </vehicle>
    <vehicle id="479" depart="191.60">
        <route edges="E4 E10 E12 E16 E18 E19 E21 E28 E31 E32 E36 E39 E45"/>
    </vehicle>
    <vehicle id="482" depart="192.80">
        <route edges="E54 E52 E50 E49 E47 E38 E37 E35 E30 E29 E27 E20"/>
    </vehicle>
    <vehicle id="486" depart="194.40">
        <route edges="E39 E48 gneE22 E53"/>
    </vehicle>
    <vehicle id="487" depart="194.80">
        <route edges="E16 E18 E19 E21 E28 E31 E32 E34"/>
    </vehicle>
    <vehicle id="492" depart="196.80">
        <route edges="E54 E52 E50 E49 E47 E38 E37 E35 E34"/>
    </vehicle>
    <vehicle id="493" depart="197.20">
        <route edges="E52 E50 E49 E47 E41"/>
    </vehicle>
    <vehicle id="494" depart="197.60">
        <route edges="E16 E18 E19 E21 E28 E31"/>
    </vehicle>
    <vehicle id="497" depart="198.80">
        <route edges="E52 E50 E49 E47 E38 E37 E35 E30 E29 E27 E20 E17 E15 E11 E9"/>
    </vehicle>
    <vehicle id="498" depart="199.20">
        <route edges="E33 E36 E39 E48 gneE22 E53 E57 E58"/>
    </vehicle>
    <vehicle id="499" depart="199.60">
        <route edges="E1 E4 E10 E12 E16 E18 E19 E21 E28 E31 E32 E36 E39 E45 E43"/>
    </vehicle>
    <vehicle id="502" depart="200.80">
        <route edges="E44 E46 E38 E37 E35 E30 E29"/>
    </vehicle>
    <vehicle id="506" depart="202.40">
        <route edges="E52 E50 E49 E47 E38 E37 E35 E30 E29 E27 E20 E17 E15 E11 E9"/>
    </vehicle>
    <vehicle id="507" depart="202.80">
        <route edges="gneE22 E53 E57"/>
    </vehicle>
    <vehicle id="513" depart="205.20">
        <route edges="E5 E10 E12 E16 E18 E19"/>
    </vehicle>
    <vehicle id="514" depart="205.60">
        <route edges="E47 E38 E37 E35 E30 E29"/>
    </vehicle>
    <vehicle id="515" depart="206.00">
        <route edges="E50 E49 E47"/>
    </vehicle>
    <vehicle id="517" depart="206.80">
        <route edges="E4 E10 E12 E16"/>
    </vehicle>
    <vehicle id="521" depart="208.40">
        <route edges="E38 E37 E35 E30 E29 E27 E20 E17 E15 E11 E9 E6"/>
    </vehicle>
    <vehicle id="522" depart="208.80">
        <route edges="E22 E28 E31 E32 E36"/>
    </vehicle>
    <vehicle id="524" depart="209.60">
        <route edges="E36 E39 E41"/>
    </vehicle>
    <vehicle id="525" depart="210.00">
        <route edges="E50 E49 E47 E38 E37 E35 E30 E29 E27 E23"/>
    </vehicle>
    <vehicle id="534" depart="213.60">
        <route edges="E33 E30 E29 E27 E20 E17 E15 E11 E9 E2"/>
    </vehicle>
    <vehicle id="537" depart="214.80">
        <route edges="E35 E30 E29 E27"/>
    </vehicle>
    <vehicle id="542" depart="216.80">
        <route edges="E16 E18 E19 E21 E28 E31 E32 E36 E39 E48 gneE22"/>
    </vehicle>
    <vehicle id="543" depart="217.20">
        <route edges="E44 E46 E38 E37 E35 E34"/>
    </vehicle>
    <vehicle id="545" depart="218.00">
        <route edges="E37 E35 E30 E29 E27 E20 E17"/>
    </vehicle>
    <vehicle id="547" depart="218.80">
        <route edges="E44 E46 E38 E37 E35 E30 E29 E27 E20 E17 E15 E11 E9 E7"/>
    </vehicle>
    <vehicle id="548" depart="219.20">
        <route edges="E8 E10 E12 E16 E18 E19 E21 E28 E31 E32 E34"/>
    </vehicle>
    <vehicle id="549" depart="219.60">
        <route edges="E40 E42 E48 gneE22 E53 E55"/>
    </vehicle>
    <vehicle id="550" depart="220.00">
        <route edges="E36 E39 E48 gneE22 E53 E57 E58"/>
    </vehicle>
    <vehicle id="553" depart="221.20">
        <route edges="E32 E36 E39 E48 gneE22 E53 E55"/>
    </vehicle>
    <vehicle id="555" depart="222.00">
        <route edges="E46 E38 E37 E35 E34"/>
    </vehicle>
    <vehicle id="562" depart="224.80">
        <route edges="E4 E7"/>
    </vehicle>
    <vehicle id="563" depart="225.20">
        <route edges="E40 E42 E48 gneE22 E53 E57"/>
    </vehicle>
    <vehicle id="564" depart="225.60">
        <route edges="E21 E28 E31 E32 E36 E39 E45"/>
    </vehicle>
    <vehicle id="565" depart="226.00">
        <route edges="E25 E28 E31 E32 E36 E39 E41"/>
    </vehicle>
    <vehicle id="567" depart="226.80">
        <route edges="E21"/>
    </vehicle>
    <vehicle id="569" depart="227.60">
        <route edges="E18 E19 E21 E28 E31 E32 E36 E39"/>
    </vehicle>
    <vehicle id="574" depart="229.60">
        <route edges="E5 E10 E12 E16 E18 E19 E21 E28 E31 E32 E36 E39 E41"/>
    </vehicle>
    <vehicle id="577" depart="230.80">
        <route edges="E47 E38 E37 E35 E30 E29 E27 E24"/>
    </vehicle>
    <vehicle id="579" depart="231.60">
        <route edges="E37 E35 E30 E29 E27 E20 E17 E15 E14"/>
    </vehicle>
    <vehicle id="580" depart="232.00">
        <route edges="E47 E38 E37 E35 E30 E29 E27 E20 E17 E15 E11 E9 E2"/>
    </vehicle>
    <vehicle id="581" depart="232.40">
        <route edges="E32 E36 E39 E48 gneE22 E53 E57"/>
    </vehicle>
    <vehicle id="582" depart="232.80">
        <route edges="E26 E25 E28 E31 E32 E36 E39 E48 gneE22 E53 E57 E58"/>
    </vehicle>
    <vehicle id="583" depart="233.20">
        <route edges="E1 E4 E6"/>
    </vehicle>
    <vehicle id="584" depart="233.60">
        <route edges="E25 E28 E31 E32 E34"/>
    </vehicle>
    <vehicle id="587" depart="234.80">
        <route edges="E42 E38 E37 E35 E30 E29 E27 E20 E17 E15"/>
    </vehicle>
    <vehicle id="588" depart="235.20">
        <route edges="E20 E17 E15 E11 E9"/>
    </vehicle>
    <vehicle id="591" depart="236.40">
        <route edges="E4 E10 E12 E14"/>
    </vehicle>
    <vehicle id="596" depart="238.40">
        <route edges="E52 E50 E49 E47 E38 E37 E35 E30 E29 E27 E20 E17 E15 E11 E9"/>
    </vehicle>
    <vehicle id="602" depart="240.80">
        <route edges="E25 E28 E31 E32 E36 E39 E48 gneE22"/>
    </vehicle>
    <vehicle id="603" depart="241.20">
        <route edges="E4 E6"/>
    </vehicle>
    <vehicle id="604" depart="241.60">
        <route edges="E29 E27 E20 E17 E15 E11 E9 E2"/>
    </vehicle>
    <vehicle id="605" depart="242.00">
        <route edges="E52 E50 E49 E47 E38 E37 E35 E30 E29 E27 E20 E17 E15 E11 E9 E6"/>
    </vehicle>
    <vehicle id="607" depart="242.80">
        <route edges="E38 E37 E35 E30 E29 E27 E20 E17 E15 E11 E9"/>
    </vehicle>
    <vehicle id="611" depart="244.40">
        <route edges="E5 E2 E0"/>
    </vehicle>
    <vehicle id="620" depart="248.00">
        <route edges="E50 E49 E47 E38 E37 E35 E30 E29 E27 E20 E17 E15 E14"/>
    </vehicle>
    <vehicle id="621" depart="248.40">
        <route edges="E42 E38 E37 E35 E30 E29 E27 E20 E17 E15 E11 E9 E2 E0"/>
    </vehicle>
    <vehicle id="624" depart="249.60">
        <route edges="E49 E47 E38 E37 E35 E30 E29 E27 E20 E17 E15 E11 E9 E2"/>
    </vehicle>
    <vehicle id="632" depart="252.80">
        <route edges="E10"/>
    </vehicle>
    <vehicle id="635" depart="254.00">
        <route edges="E8 E10 E12 E16 E18 E19 E21 E28 E31"/>
    </vehicle>
    <vehicle id="638" depart="255.20">
        <route edges="E28 E31 E32"/>
    </vehicle>
    <vehicle id="640" depart="256.00">
        <route edges="E26 E25 E28 E31"/>
    </vehicle>
    <vehicle id="642" depart="256.80">
        <route edges="E44 E46 E38 E37 E35 E30 E29 E27 E20 E17 E15"/>
    </vehicle>
    <vehicle id="643" depart="257.20">
        <route edges="E26 E25 E28 E31 E32 E36 E39"/>
    </vehicle>
    <vehicle id="647" depart="258.80">
        <route edges="E32 E34"/>
    </vehicle>
    <vehicle id="652" depart="260.80">
        <route edges="E26 E25 E28 E31 E32 E36"/>
    </vehicle>
    <vehicle id="653" depart="261.20">
        <route edges="E52 E50 E49 E47 E38"/>
    </vehicle>
    <vehicle id="654" depart="261.60">
        <route edges="E8 E10 E12 E16 E18 E19 E21"/>
    </vehicle>
    <vehicle id="658" depart="263.20">
        <route edges="E11 E9 E6"/>
    </vehicle>
    <vehicle id="659" depart="263.60">
        <route edges="E33 E30 E29 E27 E20 E17 E15 E11 E9 E2 E0"/>
    </vehicle>
    <vehicle id="662" depart="264.80">
        <route edges="E25 E20 E17 E15 E11 E9 E6"/>
    </vehicle>
    <vehicle id="664" depart="265.60">
        <route edges="E4 E10 E12 E16 E18 E19 E21 E28 E31 E32 E36 E39 E48 gneE22 E53"/>
    </vehicle>
    <vehicle id="666" depart="266.40">
        <route edges="E37 E35 E30 E29 E27 E20 E17 E15 E11 E9 E7"/>
    </vehicle>
    <vehicle id="668" depart="267.20">
        <route edges="E50"/>
    </vehicle>
    <vehicle id="669" depart="267.60">
        <route edges="E40 E42 E38 E37 E35 E30 E29 E27 E20 E17 E15 E11 E9 E6"/>
    </vehicle>
    <vehicle id="677" depart="270.80">
        <route edges="E12 E16 E18 E19"/>
    </vehicle>
    <vehicle id="678" depart="271.20">
        <route edges="E50 E49 E47 E38 E37 E35 E30 E29 E27 E23"/>
    </vehicle>
    <vehicle id="679" depart="271.60">
        <route edges="E46 E38 E37 E35 E30 E29"/>
    </vehicle>
    <vehicle id="682" depart="272.80">
        <route edges="E26 E25 E20 E17"/>
    </vehicle>
    <vehicle id="683" depart="273.20">
        <route edges="E40 E42 E38 E37 E35 E30 E29"/>
    </vehicle>
    <vehicle id="685" depart="274.00">
        <route edges="E50 E49"/>
    </vehicle>
    <vehicle id="691" depart="276.40">
        <route edges="E5 E10 E12 E16 E18 E19 E21 E28 E31 E32 E36 E39 E41"/>
    </vehicle>
    <vehicle id="692" depart="276.80">
        <route edges="E22 E20 E17 E15 E14"/>
    </vehicle>
    <vehicle id="693" depart="277.20">
        <route edges="E44 E46 E38 E37 E35"/>
    </vehicle>
    <vehicle id="694" depart="277.60">
        <route edges="E5 E10 E12 E16 E18 E19 E21 E28 E31 E32 E36 E39 E48 gneE22 E53 E57"/>
    </vehicle>
    <vehicle id="697" depart="278.80">
        <route edges="E56 E52 E50 E49 E47 E38 E37"/>
    </vehicle>
    <vehicle id="699" depart="279.60">
        <route edges="E19 E21 E28 E31"/>
    </vehicle>