<?xml version="1.0" encoding="UTF-8"?>

<!-- generated on 2021-09-29 19:49:00 by Eclipse SUMO duarouter Version 1.9.2
<configuration xmlns:xsi="http://www.w3.org/2001/XMLSchema-instance" xsi:noNamespaceSchemaLocation="http://sumo.dlr.de/xsd/duarouterConfiguration.xsd">

    <input>
        <net-file value="/home/sonic/Desktop/nets/case06/intersection.net.xml"/>
        <route-files value="trips.trips.xml"/>
    </input>

    <output>
        <output-file value="intersection_random33.rou.xml"/>
        <alternatives-output value="intersection_random33.rou.alt.xml"/>
    </output>

    <time>
        <begin value="0"/>
        <end value="18000.0"/>
    </time>

    <report>
        <no-warnings value="true"/>
        <ignore-errors value="true"/>
        <no-step-log value="true"/>
    </report>

</configuration>
-->

<routes xmlns:xsi="http://www.w3.org/2001/XMLSchema-instance" xsi:noNamespaceSchemaLocation="http://sumo.dlr.de/xsd/routes_file.xsd">
    <vehicle id="0" depart="0.00">
        <route edges="E52 E50 E49 E47 E38 E37 E35 E30 E29 E27 E20 E17 E15 E11 E9 E2"/>
    </vehicle>
    <vehicle id="4" depart="1.60">
        <route edges="E46 E38 E37 E35 E30 E29 E27 E20 E17 E15 E11 E9 E6"/>
    </vehicle>
    <vehicle id="7" depart="2.80">
        <route edges="E44 E46 E48 gneE22"/>
    </vehicle>
    <vehicle id="9" depart="3.60">
        <route edges="E29 E27 E20 E17 E15 E11 E9 E2"/>
    </vehicle>
    <vehicle id="14" depart="5.60">
        <route edges="E19 E21 E24"/>
    </vehicle>
    <vehicle id="15" depart="6.00">
        <route edges="E50 E49 E47 E38 E37 E35 E30 E29 E27 E23"/>
    </vehicle>
    <vehicle id="18" depart="7.20">
        <route edges="E12 E16 E18 E19 E21 E28 E31"/>
    </vehicle>
    <vehicle id="22" depart="8.80">
        <route edges="E52 E50 E49 E47 E38 E37 E35 E30 E29 E27 E20 E17"/>
    </vehicle>
    <vehicle id="24" depart="9.60">
        <route edges="E37 E35 E30 E29 E27 E20 E17 E15 E14"/>
    </vehicle>
    <vehicle id="25" depart="10.00">
        <route edges="E1 E4 E10 E12 E16 E18 E19 E21 E28 E31 E32"/>
    </vehicle>
    <vehicle id="36" depart="14.40">
        <route edges="E10 E12 E16 E18 E19 E21 E23"/>
    </vehicle>
    <vehicle id="37" depart="14.80">
        <route edges="E8 E10 E12 E16 E18 E19 E21 E28 E31 E32 E36 E39 E48 gneE22 E53 E57"/>
    </vehicle>
    <vehicle id="38" depart="15.20">
        <route edges="E15 E11 E9 E7"/>
    </vehicle>
    <vehicle id="44" depart="17.60">
        <route edges="E1 E4 E10 E12 E16 E18 E19 E21 E28 E31 E32 E36"/>
    </vehicle>
    <vehicle id="45" depart="18.00">
        <route edges="E26 E25 E20 E17 E15 E11 E9 E7"/>
    </vehicle>
    <vehicle id="48" depart="19.20">
        <route edges="E19 E21 E28 E31 E32 E36 E39 E48 gneE22 E53"/>
    </vehicle>
    <vehicle id="49" depart="19.60">
        <route edges="E42 E38 E37"/>
    </vehicle>
    <vehicle id="50" depart="20.00">
        <route edges="E32 E36 E39 E41"/>
    </vehicle>
    <vehicle id="51" depart="20.40">
        <route edges="E13 E16 E18 E19"/>
    </vehicle>
    <vehicle id="54" depart="21.60">
        <route edges="E42 E38 E37 E35 E30 E29 E27 E20 E17 E15 E11 E9"/>
    </vehicle>
    <vehicle id="56" depart="22.40">
        <route edges="E30 E29 E27 E20 E17 E15 E14"/>
    </vehicle>
    <vehicle id="57" depart="22.80">
        <route edges="E38 E37 E35 E30 E29"/>
    </vehicle>
    <vehicle id="60" depart="24.00">
        <route edges="E29 E27 E20 E17 E15 E11 E9 E2 E0"/>
    </vehicle>
    <vehicle id="61" depart="24.40">
        <route edges="E19 E21 E28 E31 E32 E36 E39 E48 gneE22 E53 E55"/>
    </vehicle>
    <vehicle id="62" depart="24.80">
        <route edges="E40 E42 E38 E37"/>
    </vehicle>
    <vehicle id="65" depart="26.00">
        <route edges="E18 E19 E21 E28"/>
    </vehicle>
    <vehicle id="68" depart="27.20">
        <route edges="E40 E42 E38 E37 E35 E30 E29 E27 E20 E17 E15 E11 E9"/>
    </vehicle>
    <vehicle id="71" depart="28.40">
        <route edges="E4 E10 E12 E16 E18 E19 E21 E28 E31 E32 E36 E39 E41"/>
    </vehicle>
    <vehicle id="73" depart="29.20">
        <route edges="E1 E4 E10 E12 E16 E18"/>
    </vehicle>
    <vehicle id="76" depart="30.40">
        <route edges="E28 E31 E32 E36 E39 E48 gneE22 E53"/>
    </vehicle>
    <vehicle id="77" depart="30.80">
        <route edges="E50 E49 E47 E38 E37 E35"/>
    </vehicle>
    <vehicle id="84" depart="33.60">
        <route edges="E42 E48 gneE22"/>
    </vehicle>
    <vehicle id="85" depart="34.00">
        <route edges="E10 E12 E16 E18 E19 E21 E28 E31 E32 E36 E39"/>
    </vehicle>
    <vehicle id="86" depart="34.40">
        <route edges="E4 E10 E12 E16 E18 E19 E21 E28 E31 E32 E36 E39 E45"/>
    </vehicle>
    <vehicle id="87" depart="34.80">
        <route edges="E38 E37 E35 E30 E29 E27 E20 E17 E15 E11 E9 E6"/>
    </vehicle>
    <vehicle id="88" depart="35.20">
        <route edges="E40 E42 E45"/>
    </vehicle>
    <vehicle id="95" depart="38.00">
        <route edges="E49 E47 E45 E43"/>
    </vehicle>
    <vehicle id="98" depart="39.20">
        <route edges="E16 E18 E19 E21 E28 E31 E32 E36 E39 E48 gneE22"/>
    </vehicle>
    <vehicle id="102" depart="40.80">
        <route edges="E52 E50 E49 E47"/>
    </vehicle>
    <vehicle id="103" depart="41.20">
        <route edges="gneE22 E53 E57"/>
    </vehicle>
    <vehicle id="105" depart="42.00">
        <route edges="E47 E38 E37 E35 E30 E29 E27 E23"/>
    </vehicle>
    <vehicle id="106" depart="42.40">
        <route edges="E49 E47 E38 E37 E35 E30 E29 E27 E23"/>
    </vehicle>
    <vehicle id="109" depart="43.60">
        <route edges="E40 E42 E38 E37 E35 E30 E29 E27 E20 E17 E15 E11 E9"/>
    </vehicle>
    <vehicle id="110" depart="44.00">
        <route edges="E54 E52 E50 E49"/>
    </vehicle>
    <vehicle id="111" depart="44.40">
        <route edges="E25 E20 E17 E15 E11 E9 E6"/>
    </vehicle>
    <vehicle id="112" depart="44.80">
        <route edges="E42 E48"/>
    </vehicle>
    <vehicle id="115" depart="46.00">
        <route edges="E4 E10 E12 E16 E18 E19 E21 E28 E31 E32 E36 E39 E45 E43"/>
    </vehicle>
    <vehicle id="118" depart="47.20">
        <route edges="E39 E48"/>
    </vehicle>
    <vehicle id="120" depart="48.00">
        <route edges="E4 E10 E12 E16 E18 E19 E21 E28"/>
    </vehicle>
    <vehicle id="127" depart="50.80">
        <route edges="E4 E10 E12"/>
    </vehicle>
    <vehicle id="132" depart="52.80">
        <route edges="E13 E16 E18 E19 E21 E28 E31 E32 E36 E39 E41"/>
    </vehicle>
    <vehicle id="138" depart="55.20">
        <route edges="E15 E11 E9 E6"/>
    </vehicle>
    <vehicle id="139" depart="55.60">
        <route edges="E25 E28 E31 E32 E36 E39 E48 gneE22 E53 E57 E58"/>
    </vehicle>
    <vehicle id="141" depart="56.40">
        <route edges="E5 E10 E12 E16 E18 E19 E21 E28 E31 E32 E36 E39 E48 gneE22 E53 E55"/>
    </vehicle>
    <vehicle id="142" depart="56.80">
        <route edges="E22 E28 E31 E32 E36"/>
    </vehicle>
    <vehicle id="144" depart="57.60">
        <route edges="E15 E11 E9 E2 E0"/>
    </vehicle>
    <vehicle id="145" depart="58.00">
        <route edges="E4"/>
    </vehicle>
    <vehicle id="146" depart="58.40">
        <route edges="E54 E52 E50 E49 E47 E38 E37 E35 E30 E29"/>
    </vehicle>
    <vehicle id="147" depart="58.80">
        <route edges="E37 E35 E30 E29 E27 E20 E17 E15 E14"/>
    </vehicle>
    <vehicle id="152" depart="60.80">
        <route edges="gneE22 E53 E57 E58"/>
    </vehicle>
    <vehicle id="156" depart="62.40">
        <route edges="E35 E30 E29 E27 E20 E17"/>
    </vehicle>
    <vehicle id="164" depart="65.60">
        <route edges="E26 E25 E20 E17"/>
    </vehicle>
    <vehicle id="168" depart="67.20">
        <route edges="E19"/>
    </vehicle>
    <vehicle id="170" depart="68.00">
        <route edges="E13 E16 E18 E19 E21 E28 E31 E32 E36 E39 E48 gneE22 E53 E57"/>
    </vehicle>
    <vehicle id="171" depart="68.40">
        <route edges="E56 E52"/>
    </vehicle>
    <vehicle id="173" depart="69.20">
        <route edges="E53 E57 E58"/>
    </vehicle>
    <vehicle id="177" depart="70.80">
        <route edges="E26 E25 E20 E17 E15 E11 E9 E6"/>
    </vehicle>
    <vehicle id="182" depart="72.80">
        <route edges="E17"/>
    </vehicle>
    <vehicle id="183" depart="73.20">
        <route edges="E28 E31 E32 E36 E39"/>
    </vehicle>
    <vehicle id="185" depart="74.00">
        <route edges="E47 E38"/>
    </vehicle>
    <vehicle id="189" depart="75.60">
        <route edges="E15 E11 E9 E6"/>
    </vehicle>
    <vehicle id="196" depart="78.40">
        <route edges="E42 E38 E37 E35 E34"/>
    </vehicle>
    <vehicle id="198" depart="79.20">
        <route edges="E27 E20 E17 E15 E11 E9 E2 E0"/>
    </vehicle>
    <vehicle id="199" depart="79.60">
        <route edges="E1 E4 E10 E12 E16 E18 E19 E21 E28 E31 E32 E36 E39 E48 gneE22 E53 E55"/>
    </vehicle>
    <vehicle id="200" depart="80.00">
        <route edges="E10 E12 E16 E18"/>
    </vehicle>
    <vehicle id="201" depart="80.40">
        <route edges="E38 E37 E35 E30 E29 E27 E20 E17 E15 E11 E9 E6"/>
    </vehicle>
    <vehicle id="206" depart="82.40">
        <route edges="E22 E20 E17"/>
    </vehicle>
    <vehicle id="207" depart="82.80">
        <route edges="E29 E27 E20 E17 E15 E11 E9 E2 E0"/>
    </vehicle>
    <vehicle id="209" depart="83.60">
        <route edges="E52 E50 E49 E47 E38 E37 E35 E30 E29 E27"/>
    </vehicle>
    <vehicle id="210" depart="84.00">
        <route edges="gneE22"/>
    </vehicle>
    <vehicle id="211" depart="84.40">
        <route edges="E1 E4 E10 E12 E16 E18 E19 E21 E28 E31 E32 E36"/>
    </vehicle>
    <vehicle id="212" depart="84.80">
        <route edges="E30 E29 E27 E20 E17 E15 E11 E9"/>
    </vehicle>
    <vehicle id="213" depart="85.20">
        <route edges="E12 E16 E18 E19 E21 E28 E31 E32 E36 E39 E48 gneE22"/>
    </vehicle>
    <vehicle id="214" depart="85.60">
        <route edges="E25 E28 E31 E32 E36 E39 E45"/>
    </vehicle>
    <vehicle id="215" depart="86.00">
        <route edges="E49 E47 E38 E37 E35 E30 E29"/>
    </vehicle>
    <vehicle id="217" depart="86.80">
        <route edges="E12 E16 E18 E19 E21 E28 E31 E32 E36 E39 E45 E43"/>
    </vehicle>
    <vehicle id="219" depart="87.60">
        <route edges="E25 E28 E31 E32"/>
    </vehicle>
    <vehicle id="221" depart="88.40">
        <route edges="E31 E32 E36 E39 E48 gneE22 E53 E57"/>
    </vehicle>
    <vehicle id="225" depart="90.00">
        <route edges="E26 E25 E20"/>
    </vehicle>
    <vehicle id="226" depart="90.40">
        <route edges="E38 E37 E35 E30 E29 E27 E20 E17 E15 E11"/>
    </vehicle>
    <vehicle id="228" depart="91.20">
        <route edges="E2"/>
    </vehicle>
    <vehicle id="233" depart="93.20">
        <route edges="E49 E47 E38 E37 E35 E30 E29"/>
    </vehicle>
    <vehicle id="235" depart="94.00">
        <route edges="E12 E16 E18 E19 E21 E28 E31 E32 E36 E39 E45 E43"/>
    </vehicle>
    <vehicle id="237" depart="94.80">
        <route edges="E30 E29 E27 E20 E17 E15 E11"/>
    </vehicle>
    <vehicle id="238" depart="95.20">
        <route edges="E40 E42 E45 E43"/>
    </vehicle>
    <vehicle id="240" depart="96.00">
        <route edges="E46 E48"/>
    </vehicle>
    <vehicle id="241" depart="96.40">
        <route edges="E16 E18 E19 E21 E28 E31 E32 E36 E39 E48 gneE22 E53"/>
    </vehicle>
    <vehicle id="246" depart="98.40">
        <route edges="E40 E42 E38 E37 E35 E30 E29 E27 E20 E17 E15 E11"/>
    </vehicle>
    <vehicle id="252" depart="100.80">
        <route edges="E12 E16 E18 E19 E21 E28 E31"/>
    </vehicle>
    <vehicle id="254" depart="101.60">
        <route edges="E47 E38 E37 E35 E30 E29 E27"/>
    </vehicle>
    <vehicle id="256" depart="102.40">
        <route edges="E29 E27 E20 E17 E15 E14"/>
    </vehicle>
    <vehicle id="265" depart="106.00">
        <route edges="E4 E10 E12 E16 E18 E19 E21 E24"/>
    </vehicle>
    <vehicle id="267" depart="106.80">
        <route edges="E44 E46 E48 gneE22 E53 E57"/>
    </vehicle>
    <vehicle id="269" depart="107.60">
        <route edges="E40 E42 E38 E37 E35 E30 E29 E27"/>
    </vehicle>
    <vehicle id="270" depart="108.00">
        <route edges="E42 E38 E37 E35 E30 E29 E27 E20 E17 E15 E11 E9 E2 E0"/>
    </vehicle>
    <vehicle id="276" depart="110.40">
        <route edges="E54 E52 E50 E49 E47 E38 E37 E35 E30 E29 E27 E24"/>
    </vehicle>
    <vehicle id="277" depart="110.80">
        <route edges="E56 E52 E50 E49 E47 E38 E37 E35 E30 E29 E27 E24"/>
    </vehicle>
    <vehicle id="279" depart="111.60">
        <route edges="E54 E52 E50 E49 E47 E38 E37 E35 E30 E29 E27 E20 E17 E15 E11 E9 E6"/>
    </vehicle>
    <vehicle id="283" depart="113.20">
        <route edges="E17 E15 E11 E9 E2"/>
    </vehicle>
    <vehicle id="284" depart="113.60">
        <route edges="E28 E31 E32 E36 E39 E48"/>
    </vehicle>
    <vehicle id="285" depart="114.00">
        <route edges="gneE22 E53 E57"/>
    </vehicle>
    <vehicle id="289" depart="115.60">
        <route edges="E36 E39 E48 gneE22 E53 E57 E58"/>
    </vehicle>
    <vehicle id="291" depart="116.40">
        <route edges="E22 E28 E31 E32 E34"/>
    </vehicle>
    <vehicle id="292" depart="116.80">
        <route edges="E5 E10 E12 E16"/>
    </vehicle>
    <vehicle id="293" depart="117.20">
        <route edges="E40 E42 E38 E37 E35 E30 E29 E27 E24"/>
    </vehicle>
    <vehicle id="294" depart="117.60">
        <route edges="E33 E30 E29 E27 E20 E17 E15 E14"/>
    </vehicle>
    <vehicle id="299" depart="119.60">
        <route edges="E52 E50 E49 E47 E38 E37 E35 E30 E29 E27 E20 E17"/>
    </vehicle>
    <vehicle id="300" depart="120.00">
        <route edges="E36 E39 E41"/>
    </vehicle>
    <vehicle id="305" depart="122.00">
        <route edges="E31 E32 E36 E39 E48 gneE22 E53"/>
    </vehicle>
    <vehicle id="308" depart="123.20">
        <route edges="E33 E30 E29 E27 E20 E17"/>
    </vehicle>
    <vehicle id="310" depart="124.00">
        <route edges="E50 E49 E47 E38 E37 E35 E30 E29 E27 E20"/>
    </vehicle>
    <vehicle id="311" depart="124.40">
        <route edges="E36 E39 E41"/>
    </vehicle>
    <vehicle id="312" depart="124.80">
        <route edges="E1 E4 E10"/>
    </vehicle>
    <vehicle id="315" depart="126.00">
        <route edges="E27 E20 E17 E15 E11 E9"/>
    </vehicle>
    <vehicle id="317" depart="126.80">
        <route edges="E39 E48 gneE22 E53 E55"/>
    </vehicle>
    <vehicle id="318" depart="127.20">
        <route edges="E16 E18 E19 E21"/>
    </vehicle>
    <vehicle id="320" depart="128.00">
        <route edges="E18 E19 E21 E28 E31 E32 E36 E39 E45"/>
    </vehicle>
    <vehicle id="322" depart="128.80">
        <route edges="E8 E10 E12 E16 E18 E19 E21"/>
    </vehicle>
    <vehicle id="325" depart="130.00">
        <route edges="E17 E15 E11"/>
    </vehicle>
    <vehicle id="326" depart="130.40">
        <route edges="E56 E52 E50 E49 E47 E38 E37 E35 E30 E29 E27 E20"/>
    </vehicle>
    <vehicle id="327" depart="130.80">
        <route edges="E39 E45 E43"/>
    </vehicle>
    <vehicle id="328" depart="131.20">
        <route edges="E40 E42 E38 E37 E35 E30 E29"/>
    </vehicle>
    <vehicle id="329" depart="131.60">
        <route edges="E35 E30 E29 E27 E20 E17 E15 E11 E9 E7"/>
    </vehicle>
    <vehicle id="330" depart="132.00">
        <route edges="E56 E52 E50 E49 E47 E38 E37"/>
    </vehicle>
    <vehicle id="333" depart="133.20">
        <route edges="E52 E50 E49 E47 E38 E37 E35 E30 E29 E27 E20 E17 E15 E11"/>
    </vehicle>
    <vehicle id="336" depart="134.40">
        <route edges="E12 E14"/>
    </vehicle>
    <vehicle id="337" depart="134.80">
        <route edges="E10 E12 E16"/>
    </vehicle>
    <vehicle id="343" depart="137.20">
        <route edges="E28 E31 E32 E36 E39 E45"/>
    </vehicle>
    <vehicle id="345" depart="138.00">
        <route edges="E22 E20 E17 E15 E11 E9 E7"/>
    </vehicle>
    <vehicle id="348" depart="139.20">
        <route edges="E44 E46 E38 E37 E35 E30 E29 E27 E20 E17"/>
    </vehicle>
    <vehicle id="349" depart="139.60">
        <route edges="E56 E52 E50 E49 E47 E38 E37 E35 E30 E29 E27 E23"/>
    </vehicle>
    <vehicle id="353" depart="141.20">
        <route edges="E54 E57 E58"/>
    </vehicle>
    <vehicle id="354" depart="141.60">
        <route edges="E13 E16 E18 E19 E21 E28 E31 E32 E36 E39 E48 gneE22 E53"/>
    </vehicle>
    <vehicle id="358" depart="143.20">
        <route edges="E40 E42 E48 gneE22 E53 E57 E58"/>
    </vehicle>
    <vehicle id="359" depart="143.60">
        <route edges="E44 E46 E38 E37 E35 E30 E29 E27 E24"/>
    </vehicle>
    <vehicle id="360" depart="144.00">
        <route edges="E13 E16 E18 E19 E21 E28 E31 E32 E36 E39 E48 gneE22"/>
    </vehicle>
    <vehicle id="362" depart="144.80">
        <route edges="E33 E36 E39 E41"/>
    </vehicle>
    <vehicle id="364" depart="145.60">
        <route edges="E52 E50 E49 E47 E38 E37 E35 E30 E29 E27 E20"/>
    </vehicle>
    <vehicle id="365" depart="146.00">
        <route edges="E42 E48 gneE22 E53 E55"/>
    </vehicle>
    <vehicle id="367" depart="146.80">
        <route edges="E5 E10 E12 E14"/>
    </vehicle>
    <vehicle id="373" depart="149.20">
        <route edges="E54 E52 E50 E49 E47 E38 E37 E35 E30 E29 E27 E20 E17 E15 E14"/>
    </vehicle>
    <vehicle id="374" depart="149.60">
        <route edges="E11 E9 E2"/>
    </vehicle>
    <vehicle id="375" depart="150.00">
        <route edges="E19 E21 E28 E31 E32"/>
    </vehicle>
    <vehicle id="376" depart="150.40">
        <route edges="E18 E19 E21 E28 E31 E32 E36 E39 E48"/>
    </vehicle>
    <vehicle id="381" depart="152.40">
        <route edges="E4 E10 E12 E16 E18 E19 E21 E28 E31 E32 E36 E39 E45 E43"/>
    </vehicle>
    <vehicle id="384" depart="153.60">
        <route edges="E18 E19 E21 E28 E31 E32 E34"/>
    </vehicle>
    <vehicle id="385" depart="154.00">
        <route edges="E8 E10 E12 E16 E18 E19 E21 E28 E31"/>
    </vehicle>
    <vehicle id="386" depart="154.40">
        <route edges="E38 E37 E35 E30 E29 E27 E20 E17 E15 E11"/>
    </vehicle>
    <vehicle id="390" depart="156.00">
        <route edges="E33 E36 E39 E45"/>
    </vehicle>
    <vehicle id="392" depart="156.80">
        <route edges="E50 E49 E47 E38 E37 E35 E30 E29 E27 E24"/>
    </vehicle>
    <vehicle id="393" depart="157.20">
        <route edges="E50 E49 E47 E38"/>
    </vehicle>
    <vehicle id="402" depart="160.80">
        <route edges="E18 E19 E21"/>
    </vehicle>
    <vehicle id="403" depart="161.20">
        <route edges="E52 E50 E49 E47 E41"/>
    </vehicle>
    <vehicle id="404" depart="161.60">
        <route edges="E10 E12"/>
    </vehicle>
    <vehicle id="405" depart="162.00">
        <route edges="E49 E47 E38 E37 E35 E30"/>
    </vehicle>
    <vehicle id="407" depart="162.80">
        <route edges="E21 E28 E31 E32 E36 E39 E41"/>
    </vehicle>
    <vehicle id="412" depart="164.80">
        <route edges="E54 E52 E50 E49 E47 E38 E37 E35 E30 E29 E27 E24"/>
    </vehicle>
    <vehicle id="413" depart="165.20">
        <route edges="E18 E19 E21 E23"/>
    </vehicle>
    <vehicle id="427" depart="170.80">
        <route edges="E40 E42 E48 gneE22 E53 E57 E58"/>
    </vehicle>
    <vehicle id="428" depart="171.20">
        <route edges="E42 E38 E37 E35 E30 E29"/>
    </vehicle>
    <vehicle id="429" depart="171.60">
        <route edges="E12 E16 E18 E19 E21 E28 E31"/>
    </vehicle>
    <vehicle id="431" depart="172.40">
        <route edges="E17 E15 E11"/>
    </vehicle>
    <vehicle id="432" depart="172.80">
        <route edges="E42 E38 E37 E35 E30 E29"/>
    </vehicle>
    <vehicle id="433" depart="173.20">
        <route edges="E40 E42 E38 E37 E35 E30 E29 E27 E20"/>
    </vehicle>
    <vehicle id="434" depart="173.60">
        <route edges="E26 E25 E28 E31 E32 E36 E39 E48 gneE22 E53 E57 E58"/>
    </vehicle>
    <vehicle id="435" depart="174.00">
        <route edges="E25 E20 E17 E15 E14"/>
    </vehicle>
    <vehicle id="439" depart="175.60">
        <route edges="E12 E16 E18"/>
    </vehicle>
    <vehicle id="444" depart="177.60">
        <route edges="E31 E32 E36 E39 E48 gneE22"/>
    </vehicle>
    <vehicle id="446" depart="178.40">
        <route edges="E10 E12 E16 E18 E19 E21"/>
    </vehicle>
    <vehicle id="447" depart="178.80">
        <route edges="E29"/>
    </vehicle>
    <vehicle id="448" depart="179.20">
        <route edges="E37 E35"/>
    </vehicle>
    <vehicle id="449" depart="179.60">
        <route edges="E50 E49 E47 E38 E37 E35 E30 E29 E27 E20 E17 E15 E11 E9 E7"/>
    </vehicle>
    <vehicle id="450" depart="180.00">
        <route edges="E1 E4 E10 E12 E16 E18 E19 E21 E24"/>
    </vehicle>
    <vehicle id="456" depart="182.40">
        <route edges="E13 E16 E18 E19 E21 E28 E31 E32 E36 E39 E48 gneE22 E53 E55"/>
    </vehicle>
    <vehicle id="459" depart="183.60">
        <route edges="E16 E18 E19 E21 E28 E31 E32 E36"/>
    </vehicle>
    <vehicle id="461" depart="184.40">
        <route edges="E49 E47 E38 E37 E35 E30 E29 E27"/>
    </vehicle>
    <vehicle id="462" depart="184.80">
        <route edges="E18 E19 E21 E28 E31"/>
    </vehicle>
    <vehicle id="465" depart="186.00">
        <route edges="E1 E4 E10 E12 E16 E18 E19 E21 E28 E31 E32 E36 E39 E45 E43"/>
    </vehicle>
    <vehicle id="467" depart="186.80">
        <route edges="E4 E10 E12 E16 E18 E19 E21 E28 E31 E32 E36 E39 E45"/>
    </vehicle>
    <vehicle id="469" depart="187.60">
        <route edges="E56 E52 E50 E49 E47 E38 E37 E35 E30 E29 E27 E20 E17 E15 E11 E9 E2 E0"/>
    </vehicle>
    <vehicle id="471" depart="188.40">
        <route edges="E25"/>
    </vehicle>
    <vehicle id="473" depart="189.20">
        <route edges="E13 E16 E18 E19 E21 E28 E31 E32 E36 E39 E48 gneE22 E53 E55"/>
    </vehicle>
    <vehicle id="475" depart="190.00">
        <route edges="E54 E52 E50 E49 E47 E38 E37 E35 E30 E29 E27 E20 E17 E15"/>
    </vehicle>
    <vehicle id="477" depart="190.80">
        <route edges="E46 E38 E37 E35 E30 E29 E27 E23"/>
    </vehicle>
    <vehicle id="479" depart="191.60">
        <route edges="E56 E52 E50 E49 E47 E38 E37 E35 E34"/>
    </vehicle>
    <vehicle id="480" depart="192.00">
        <route edges="E5 E10 E12"/>
    </vehicle>
    <vehicle id="481" depart="192.40">
        <route edges="E4 E10 E12 E16 E18 E19 E21 E28 E31 E32 E36 E39 E48 gneE22 E53 E55"/>
    </vehicle>
    <vehicle id="482" depart="192.80">
        <route edges="E44 E46 E38 E37 E35 E30 E29 E27 E20 E17 E15 E11 E9 E2"/>
    </vehicle>
    <vehicle id="487" depart="194.80">
        <route edges="E56 E52 E50 E49 E47 E38 E37 E35 E30"/>
    </vehicle>
    <vehicle id="489" depart="195.60">
        <route edges="E39 E41"/>
    </vehicle>
    <vehicle id="490" depart="196.00">
        <route edges="E10 E12 E16 E18 E19 E21 E28 E31"/>
    </vehicle>
    <vehicle id="492" depart="196.80">
        <route edges="E2 E0"/>
    </vehicle>
    <vehicle id="497" depart="198.80">
        <route edges="E10 E12 E14"/>
    </vehicle>
    <vehicle id="498" depart="199.20">
        <route edges="E40 E42 E38 E37 E35 E34"/>
    </vehicle>
    <vehicle id="499" depart="199.60">
        <route edges="E35 E30 E29 E27 E20 E17"/>
    </vehicle>
    <vehicle id="501" depart="200.40">
        <route edges="E38 E37 E35 E30 E29 E27 E20 E17 E15 E11 E9 E2 E0"/>
    </vehicle>
    <vehicle id="502" depart="200.80">
        <route edges="E49 E47 E38 E37 E35 E30 E29 E27"/>
    </vehicle>
    <vehicle id="503" depart="201.20">
        <route edges="E16 E18 E19 E21 E28 E31 E32 E36 E39 E48"/>
    </vehicle>
    <vehicle id="505" depart="202.00">
        <route edges="E54 E57 E58"/>
    </vehicle>
    <vehicle id="512" depart="204.80">
        <route edges="E1 E4 E10 E12 E16 E18 E19 E21 E28 E31 E32 E36 E39 E48 gneE22 E53 E57"/>
    </vehicle>
    <vehicle id="514" depart="205.60">
        <route edges="E52 E50 E49 E47"/>
    </vehicle>
    <vehicle id="517" depart="206.80">
        <route edges="E8 E10 E12 E16 E18 E19 E21"/>
    </vehicle>
    <vehicle id="522" depart="208.80">
        <route edges="E52 E50 E49 E47 E38 E37 E35 E30"/>
    </vehicle>
    <vehicle id="523" depart="209.20">
        <route edges="E46 E38 E37 E35 E30 E29 E27 E20 E17 E15 E11 E9 E7"/>
    </vehicle>
    <vehicle id="528" depart="211.20">
        <route edges="E10 E12 E16 E18 E19 E21 E28 E31 E32 E34"/>
    </vehicle>
    <vehicle id="530" depart="212.00">
        <route edges="E56 E52 E50 E49 E47 E38 E37 E35 E30 E29 E27 E20"/>
    </vehicle>
    <vehicle id="532" depart="212.80">
        <route edges="E42 E38 E37 E35 E30 E29 E27 E20 E17 E15 E11 E9"/>
    </vehicle>
    <vehicle id="533" depart="213.20">
        <route edges="E1 E4 E10 E12 E16 E18 E19 E21 E28 E31 E32 E36 E39 E45 E43"/>
    </vehicle>
    <vehicle id="534" depart="213.60">
        <route edges="E12 E16 E18 E19 E21 E28 E31 E32 E36 E39 E48 gneE22 E53 E57"/>
    </vehicle>
    <vehicle id="538" depart="215.20">
        <route edges="E26 E25 E28 E31 E32 E36 E39 E48 gneE22 E53 E55"/>
    </vehicle>
    <vehicle id="539" depart="215.60">
        <route edges="E44 E46 E38 E37 E35 E30 E29 E27 E20 E17 E15"/>
    </vehicle>
    <vehicle id="541" depart="216.40">
        <route edges="E4 E10 E12 E16 E18 E19 E21 E28 E31 E32 E36 E39 E45"/>
    </vehicle>
    <vehicle id="543" depart="217.20">
        <route edges="E46 E38 E37 E35 E30"/>
    </vehicle>
    <vehicle id="544" depart="217.60">
        <route edges="E8 E2 E0"/>
    </vehicle>
    <vehicle id="547" depart="218.80">
        <route edges="E36 E39 E45"/>
    </vehicle>
    <vehicle id="554" depart="221.60">
        <route edges="E4 E10 E12 E16 E18 E19 E21 E23"/>
    </vehicle>
    <vehicle id="555" depart="222.00">
        <route edges="E15 E11 E9 E6"/>
    </vehicle>
    <vehicle id="562" depart="224.80">
        <route edges="E28 E31 E32 E34"/>
    </vehicle>
    <vehicle id="564" depart="225.60">
        <route edges="E29 E27 E20 E17 E15 E11 E9 E7"/>
    </vehicle>
    <vehicle id="566" depart="226.40">
        <route edges="E28 E31 E32 E36 E39 E48 gneE22 E53 E55"/>
    </vehicle>
    <vehicle id="568" depart="227.20">
        <route edges="E42 E38 E37 E35 E30 E29"/>
    </vehicle>
    <vehicle id="572" depart="228.80">
        <route edges="E12 E16 E18 E19 E21 E28 E31 E32 E36 E39 E48 gneE22"/>
    </vehicle>
    <vehicle id="574" depart="229.60">
        <route edges="E40 E42 E38 E37 E35 E30 E29"/>
    </vehicle>
    <vehicle id="576" depart="230.40">
        <route edges="E13 E11"/>
    </vehicle>
    <vehicle id="577" depart="230.80">
        <route edges="E26 E25 E20 E17 E15 E11 E9 E6"/>
    </vehicle>
    <vehicle id="581" depart="232.40">
        <route edges="E52 E50 E49 E47 E38 E37 E35 E30 E29 E27 E20 E17 E15 E11 E9 E2"/>
    </vehicle>
    <vehicle id="582" depart="232.80">
        <route edges="E18 E19 E21 E28 E31 E32 E36"/>
    </vehicle>
    <vehicle id="583" depart="233.20">
        <route edges="E47 E38"/>
    </vehicle>
    <vehicle id="584" depart="233.60">
        <route edges="E31 E32 E36 E39 E48 gneE22"/>
    </vehicle>
    <vehicle id="585" depart="234.00">
        <route edges="E18 E19 E21 E28 E31 E32 E36 E39 E45 E43"/>
    </vehicle>
    <vehicle id="586" depart="234.40">
        <route edges="E33 E36 E39 E48"/>
    </vehicle>
    <vehicle id="591" depart="236.40">
        <route edges="E22 E28 E31 E32 E36 E39 E45 E43"/>
    </vehicle>
    <vehicle id="592" depart="236.80">
        <route edges="E12 E16 E18 E19 E21 E28 E31 E32 E36 E39"/>
    </vehicle>
    <vehicle id="593" depart="237.20">
        <route edges="E27 E20 E17 E15 E11"/>
    </vehicle>
    <vehicle id="595" depart="238.00">
        <route edges="E48 gneE22 E53"/>
    </vehicle>
    <vehicle id="599" depart="239.60">
        <route edges="E50 E49 E47 E38 E37"/>
    </vehicle>
    <vehicle id="602" depart="240.80">
        <route edges="E56 E52 E50 E49 E47 E45 E43"/>
    </vehicle>
    <vehicle id="603" depart="241.20">
        <route edges="E22 E28 E31 E32 E36 E39 E45 E43"/>
    </vehicle>
    <vehicle id="604" depart="241.60">
        <route edges="E52 E50 E49 E47 E38 E37 E35 E30 E29"/>
    </vehicle>
    <vehicle id="607" depart="242.80">
        <route edges="E44 E46 E38 E37 E35 E30 E29 E27 E20 E17 E15 E14"/>
    </vehicle>
    <vehicle id="609" depart="243.60">
        <route edges="E8 E10 E12 E16 E18"/>
    </vehicle>
    <vehicle id="612" depart="244.80">
        <route edges="E28 E31 E32 E36 E39 E45"/>
    </vehicle>
    <vehicle id="614" depart="245.60">
        <route edges="E26 E25 E28 E31 E32 E36 E39 E45 E43"/>
    </vehicle>
    <vehicle id="615" depart="246.00">
        <route edges="E19 E21 E28 E31 E32 E36 E39 E48"/>
    </vehicle>
    <vehicle id="619" depart="247.60">
        <route edges="E28 E31 E32 E36 E39 E48"/>
    </vehicle>
    <vehicle id="621" depart="248.40">
        <route edges="E25 E28 E31 E32 E36 E39 E41"/>
    </vehicle>
    <vehicle id="623" depart="249.20">
        <route edges="E42 E38 E37 E35 E30 E29 E27 E20 E17 E15 E11 E9 E6"/>
    </vehicle>
    <vehicle id="624" depart="249.60">
        <route edges="E27 E20 E17 E15 E11 E9 E2"/>
    </vehicle>
    <vehicle id="632" depart="252.80">
        <route edges="E54 E52 E50 E49 E47 E38 E37 E35 E30"/>
    </vehicle>
    <vehicle id="635" depart="254.00">
        <route edges="E33 E30 E29 E27 E24"/>
    </vehicle>
    <vehicle id="636" depart="254.40">
        <route edges="gneE22 E53 E57 E58"/>
    </vehicle>
    <vehicle id="639" depart="255.60">
        <route edges="E8 E2"/>
    </vehicle>
    <vehicle id="643" depart="257.20">
        <route edges="E22 E28 E31 E32 E36 E39 E41"/>
    </vehicle>
    <vehicle id="645" depart="258.00">
        <route edges="E25 E20 E17 E15 E11 E9"/>
    </vehicle>
    <vehicle id="650" depart="260.00">
        <route edges="E1 E4 E7"/>
    </vehicle>
    <vehicle id="653" depart="261.20">
        <route edges="E21 E28 E31 E32 E36 E39 E48 gneE22 E53 E57 E58"/>
    </vehicle>
    <vehicle id="654" depart="261.60">
        <route edges="E32 E36 E39 E41"/>
    </vehicle>