<?xml version="1.0" encoding="UTF-8"?>

<!-- generated on 2021-09-29 19:48:29 by Eclipse SUMO duarouter Version 1.9.2
<configuration xmlns:xsi="http://www.w3.org/2001/XMLSchema-instance" xsi:noNamespaceSchemaLocation="http://sumo.dlr.de/xsd/duarouterConfiguration.xsd">

    <input>
        <net-file value="/home/sonic/Desktop/nets/case06/intersection.net.xml"/>
        <route-files value="trips.trips.xml"/>
    </input>

    <output>
        <output-file value="intersection_random18.rou.xml"/>
        <alternatives-output value="intersection_random18.rou.alt.xml"/>
    </output>

    <time>
        <begin value="0"/>
        <end value="18000.0"/>
    </time>

    <report>
        <no-warnings value="true"/>
        <ignore-errors value="true"/>
        <no-step-log value="true"/>
    </report>

</configuration>
-->

<routes xmlns:xsi="http://www.w3.org/2001/XMLSchema-instance" xsi:noNamespaceSchemaLocation="http://sumo.dlr.de/xsd/routes_file.xsd">
    <vehicle id="2" depart="0.60">
        <route edges="E35 E30 E29 E27 E20 E17 E15 E11 E9"/>
    </vehicle>
    <vehicle id="3" depart="0.90">
        <route edges="E39 E48 gneE22"/>
    </vehicle>
    <vehicle id="8" depart="2.40">
        <route edges="E18 E19 E21 E28 E31 E32 E34"/>
    </vehicle>
    <vehicle id="10" depart="3.00">
        <route edges="E5 E10 E12 E16 E18 E19 E21 E28 E31 E32 E34"/>
    </vehicle>
    <vehicle id="11" depart="3.30">
        <route edges="E27 E24"/>
    </vehicle>
    <vehicle id="12" depart="3.60">
        <route edges="E33 E30 E29 E27 E20 E17 E15 E11 E9 E6"/>
    </vehicle>
    <vehicle id="17" depart="5.10">
        <route edges="E1 E4 E10 E12 E16 E18 E19 E21 E28 E31 E32 E34"/>
    </vehicle>
    <vehicle id="18" depart="5.40">
        <route edges="E46 E48 gneE22 E53 E57"/>
    </vehicle>
    <vehicle id="19" depart="5.70">
        <route edges="E54 E52 E50 E49 E47 E38 E37 E35 E30 E29 E27 E20 E17 E15 E11 E9 E2"/>
    </vehicle>
    <vehicle id="21" depart="6.30">
        <route edges="E5 E10 E12 E16 E18 E19 E21 E23"/>
    </vehicle>
    <vehicle id="27" depart="8.10">
        <route edges="E28 E31 E32 E36 E39 E48 gneE22 E53"/>
    </vehicle>
    <vehicle id="31" depart="9.30">
        <route edges="E44 E46 E38 E37 E35 E30"/>
    </vehicle>
    <vehicle id="37" depart="11.10">
        <route edges="E42 E38 E37 E35 E30 E29 E27 E20 E17 E15"/>
    </vehicle>
    <vehicle id="39" depart="11.70">
        <route edges="E1 E4 E10 E12 E16 E18"/>
    </vehicle>
    <vehicle id="40" depart="12.00">
        <route edges="E30"/>
    </vehicle>
    <vehicle id="45" depart="13.50">
        <route edges="E22 E20"/>
    </vehicle>
    <vehicle id="47" depart="14.10">
        <route edges="E4 E10 E12 E16"/>
    </vehicle>
    <vehicle id="52" depart="15.60">
        <route edges="E22 E20 E17 E15 E11 E9 E2"/>
    </vehicle>
    <vehicle id="54" depart="16.20">
        <route edges="E36 E39 E41"/>
    </vehicle>
    <vehicle id="56" depart="16.80">
        <route edges="E5 E10 E12 E16"/>
    </vehicle>
    <vehicle id="58" depart="17.40">
        <route edges="E4 E10 E12 E16 E18 E19 E21 E28 E31 E32 E36 E39"/>
    </vehicle>
    <vehicle id="62" depart="18.60">
        <route edges="E1 E4 E10 E12 E16 E18 E19 E21"/>
    </vehicle>
    <vehicle id="63" depart="18.90">
        <route edges="E19 E21 E28 E31 E32 E36"/>
    </vehicle>
    <vehicle id="64" depart="19.20">
        <route edges="E13 E16 E18 E19 E21 E28 E31 E32 E36 E39 E48 gneE22 E53 E55"/>
    </vehicle>
    <vehicle id="65" depart="19.50">
        <route edges="E33 E36 E39 E48 gneE22 E53 E57 E58"/>
    </vehicle>
    <vehicle id="66" depart="19.80">
        <route edges="E20"/>
    </vehicle>
    <vehicle id="67" depart="20.10">
        <route edges="E50 E49 E47 E38 E37 E35 E30 E29"/>
    </vehicle>
    <vehicle id="74" depart="22.20">
        <route edges="E35 E30"/>
    </vehicle>
    <vehicle id="75" depart="22.50">
        <route edges="E1 E4 E10 E12 E16 E18 E19 E21 E28 E31 E32 E36 E39 E48"/>
    </vehicle>
    <vehicle id="76" depart="22.80">
        <route edges="E47 E38 E37 E35 E34"/>
    </vehicle>
    <vehicle id="77" depart="23.10">
        <route edges="E10 E12 E14"/>
    </vehicle>
    <vehicle id="78" depart="23.40">
        <route edges="E4 E10 E12 E16 E18 E19 E21 E28 E31 E32 E36 E39 E45 E43"/>
    </vehicle>
    <vehicle id="79" depart="23.70">
        <route edges="E21 E28 E31 E32 E36 E39 E48 gneE22 E53 E57"/>
    </vehicle>
    <vehicle id="81" depart="24.30">
        <route edges="E31 E32 E36 E39 E48 gneE22 E53 E57"/>
    </vehicle>
    <vehicle id="83" depart="24.90">
        <route edges="E10 E12 E16 E18 E19 E21 E28"/>
    </vehicle>
    <vehicle id="84" depart="25.20">
        <route edges="E42 E38 E37 E35 E34"/>
    </vehicle>
    <vehicle id="85" depart="25.50">
        <route edges="E42 E48 gneE22 E53 E55"/>
    </vehicle>
    <vehicle id="88" depart="26.40">
        <route edges="E40 E42 E48 gneE22 E53 E57"/>
    </vehicle>
    <vehicle id="92" depart="27.60">
        <route edges="E37 E35 E30 E29 E27 E20 E17 E15"/>
    </vehicle>
    <vehicle id="93" depart="27.90">
        <route edges="E17 E15 E14"/>
    </vehicle>
    <vehicle id="97" depart="29.10">
        <route edges="E1 E4 E10 E12 E16 E18 E19 E21 E28 E31 E32 E34"/>
    </vehicle>
    <vehicle id="103" depart="30.90">
        <route edges="E22 E28 E31 E32 E36 E39 E48 gneE22"/>
    </vehicle>
    <vehicle id="108" depart="32.40">
        <route edges="E35 E30 E29 E27 E20"/>
    </vehicle>
    <vehicle id="109" depart="32.70">
        <route edges="E52 E50"/>
    </vehicle>
    <vehicle id="111" depart="33.30">
        <route edges="E19 E21 E28 E31 E32 E34"/>
    </vehicle>
    <vehicle id="113" depart="33.90">
        <route edges="E40 E42 E38 E37 E35 E30 E29 E27 E24"/>
    </vehicle>
    <vehicle id="116" depart="34.80">
        <route edges="E1 E4 E10 E12 E16"/>
    </vehicle>
    <vehicle id="118" depart="35.40">
        <route edges="E10 E12 E16 E18 E19 E21 E28 E31 E32 E36 E39 E48 gneE22 E53"/>
    </vehicle>
    <vehicle id="121" depart="36.30">
        <route edges="E4 E10 E12 E14"/>
    </vehicle>
    <vehicle id="124" depart="37.20">
        <route edges="E26 E25 E28 E31 E32 E36 E39 E41"/>
    </vehicle>
    <vehicle id="125" depart="37.50">
        <route edges="E40 E42 E38 E37 E35 E30 E29 E27 E20"/>
    </vehicle>
    <vehicle id="126" depart="37.80">
        <route edges="E5 E10 E12 E16 E18 E19 E21 E28 E31 E32 E36 E39 E41"/>
    </vehicle>
    <vehicle id="129" depart="38.70">
        <route edges="E5 E10 E12 E16 E18 E19 E21 E28 E31 E32 E34"/>
    </vehicle>
    <vehicle id="134" depart="40.20">
        <route edges="E49 E47 E38 E37 E35 E30 E29 E27 E20"/>
    </vehicle>
    <vehicle id="140" depart="42.00">
        <route edges="E26 E25 E28 E31 E32 E36 E39 E48 gneE22 E53 E55"/>
    </vehicle>
    <vehicle id="141" depart="42.30">
        <route edges="E49 E47 E38 E37 E35 E34"/>
    </vehicle>
    <vehicle id="142" depart="42.60">
        <route edges="E40 E42 E38 E37"/>
    </vehicle>
    <vehicle id="148" depart="44.40">
        <route edges="E4 E7"/>
    </vehicle>
    <vehicle id="149" depart="44.70">
        <route edges="E26 E25 E20 E17 E15 E11 E9"/>
    </vehicle>
    <vehicle id="150" depart="45.00">
        <route edges="E52 E50 E49 E47 E38 E37 E35 E30 E29 E27 E20"/>
    </vehicle>
    <vehicle id="152" depart="45.60">
        <route edges="E37 E35 E34"/>
    </vehicle>
    <vehicle id="154" depart="46.20">
        <route edges="E44 E46 E48 gneE22 E53 E57 E58"/>
    </vehicle>
    <vehicle id="157" depart="47.10">
        <route edges="E12 E16 E18 E19 E21 E23"/>
    </vehicle>
    <vehicle id="160" depart="48.00">
        <route edges="E26 E25 E20 E17 E15 E11 E9 E2"/>
    </vehicle>
    <vehicle id="161" depart="48.30">
        <route edges="E12 E16 E18 E19 E21 E28 E31 E32 E36 E39 E45 E43"/>
    </vehicle>
    <vehicle id="163" depart="48.90">
        <route edges="E32 E36 E39 E45"/>
    </vehicle>
    <vehicle id="164" depart="49.20">
        <route edges="E9 E7"/>
    </vehicle>
    <vehicle id="172" depart="51.60">
        <route edges="E22 E28 E31 E32 E36"/>
    </vehicle>
    <vehicle id="173" depart="51.90">
        <route edges="E40 E42 E48 gneE22 E53 E57"/>
    </vehicle>
    <vehicle id="175" depart="52.50">
        <route edges="E45"/>
    </vehicle>
    <vehicle id="176" depart="52.80">
        <route edges="E18 E19 E21 E28 E31"/>
    </vehicle>
    <vehicle id="183" depart="54.90">
        <route edges="E25 E28 E31 E32 E36 E39 E41"/>
    </vehicle>
    <vehicle id="188" depart="56.40">
        <route edges="E12 E14"/>
    </vehicle>
    <vehicle id="189" depart="56.70">
        <route edges="E29 E27 E20"/>
    </vehicle>
    <vehicle id="191" depart="57.30">
        <route edges="E17"/>
    </vehicle>
    <vehicle id="193" depart="57.90">
        <route edges="E26 E25 E28 E31 E32 E36 E39 E48"/>
    </vehicle>
    <vehicle id="199" depart="59.70">
        <route edges="E50 E49 E47 E38 E37 E35 E30 E29 E27"/>
    </vehicle>
    <vehicle id="203" depart="60.90">
        <route edges="E57"/>
    </vehicle>
    <vehicle id="206" depart="61.80">
        <route edges="E22 E28 E31 E32 E36 E39 E41"/>
    </vehicle>
    <vehicle id="209" depart="62.70">
        <route edges="E32 E34"/>
    </vehicle>
    <vehicle id="215" depart="64.50">
        <route edges="E44 E46 E38 E37 E35 E30 E29 E27 E24"/>
    </vehicle>
    <vehicle id="219" depart="65.70">
        <route edges="E46 E38 E37 E35 E30 E29 E27"/>
    </vehicle>
    <vehicle id="222" depart="66.60">
        <route edges="E42 E38 E37 E35 E30 E29 E27 E20"/>
    </vehicle>
    <vehicle id="223" depart="66.90">
        <route edges="E46 E38 E37 E35 E30 E29 E27 E23"/>
    </vehicle>
    <vehicle id="226" depart="67.80">
        <route edges="E45 E43"/>
    </vehicle>
    <vehicle id="228" depart="68.40">
        <route edges="E10 E12 E16"/>
    </vehicle>
    <vehicle id="229" depart="68.70">
        <route edges="E40 E42 E45 E43"/>
    </vehicle>
    <vehicle id="230" depart="69.00">
        <route edges="E44 E46 E38 E37 E35 E30 E29 E27"/>
    </vehicle>
    <vehicle id="235" depart="70.50">
        <route edges="E42 E45 E43"/>
    </vehicle>
    <vehicle id="236" depart="70.80">
        <route edges="E44 E46 E38 E37 E35 E30 E29 E27 E20 E17 E15 E11 E9"/>
    </vehicle>
    <vehicle id="238" depart="71.40">
        <route edges="E25 E28 E31"/>
    </vehicle>
    <vehicle id="242" depart="72.60">
        <route edges="E49 E47 E41"/>
    </vehicle>
    <vehicle id="244" depart="73.20">
        <route edges="E16 E18 E19"/>
    </vehicle>
    <vehicle id="246" depart="73.80">
        <route edges="E31 E32 E36 E39 E48 gneE22 E53 E57"/>
    </vehicle>
    <vehicle id="247" depart="74.10">
        <route edges="E5 E10 E12 E16 E18 E19 E21 E28 E31 E32 E34"/>
    </vehicle>
    <vehicle id="253" depart="75.90">
        <route edges="E47 E38 E37 E35 E30 E29 E27 E20 E17 E15"/>
    </vehicle>
    <vehicle id="254" depart="76.20">
        <route edges="E49 E47 E45"/>
    </vehicle>
    <vehicle id="255" depart="76.50">
        <route edges="E1 E4 E10 E12 E16 E18 E19 E21 E28 E31 E32 E36 E39 E48"/>
    </vehicle>
    <vehicle id="256" depart="76.80">
        <route edges="E25 E20 E17 E15 E11 E9 E2 E0"/>
    </vehicle>
    <vehicle id="259" depart="77.70">
        <route edges="E18 E19 E21 E28 E31 E32 E34"/>
    </vehicle>
    <vehicle id="260" depart="78.00">
        <route edges="E50 E49 E47 E38 E37 E35"/>
    </vehicle>
    <vehicle id="263" depart="78.90">
        <route edges="E37 E35 E30 E29 E27 E20 E17"/>
    </vehicle>
    <vehicle id="269" depart="80.70">
        <route edges="E5 E10 E12 E16 E18 E19 E21 E28"/>
    </vehicle>
    <vehicle id="270" depart="81.00">
        <route edges="E42 E38 E37 E35 E30 E29 E27 E20 E17 E15 E11 E9 E2"/>
    </vehicle>
    <vehicle id="271" depart="81.30">
        <route edges="E8 E10 E12 E16 E18 E19 E21 E28 E31 E32 E36 E39 E45"/>
    </vehicle>
    <vehicle id="272" depart="81.60">
        <route edges="E46 E48 gneE22 E53 E55"/>
    </vehicle>
    <vehicle id="274" depart="82.20">
        <route edges="E29 E27 E24"/>
    </vehicle>
    <vehicle id="275" depart="82.50">
        <route edges="E21 E28 E31 E32 E36 E39 E45"/>
    </vehicle>
    <vehicle id="279" depart="83.70">
        <route edges="E22 E20 E17 E15 E11 E9 E6"/>
    </vehicle>
    <vehicle id="285" depart="85.50">
        <route edges="E13 E16 E18 E19 E21 E28 E31"/>
    </vehicle>
    <vehicle id="288" depart="86.40">
        <route edges="E16 E18 E19 E21 E28 E31 E32 E36 E39 E45"/>
    </vehicle>
    <vehicle id="290" depart="87.00">
        <route edges="E56 E52"/>
    </vehicle>
    <vehicle id="292" depart="87.60">
        <route edges="E39 E41"/>
    </vehicle>
    <vehicle id="295" depart="88.50">
        <route edges="E4 E10 E12 E16 E18 E19 E21 E28 E31 E32 E36 E39 E48 gneE22 E53 E57"/>
    </vehicle>
    <vehicle id="296" depart="88.80">
        <route edges="E38 E37 E35 E30 E29 E27 E23"/>
    </vehicle>
    <vehicle id="297" depart="89.10">
        <route edges="E19 E21"/>
    </vehicle>
    <vehicle id="299" depart="89.70">
        <route edges="E10 E12 E16 E18 E19 E21 E28 E31 E32 E36 E39 E45"/>
    </vehicle>
    <vehicle id="300" depart="90.00">
        <route edges="E26 E25 E28 E31"/>
    </vehicle>
    <vehicle id="307" depart="92.10">
        <route edges="E50 E49 E47 E38"/>
    </vehicle>
    <vehicle id="308" depart="92.40">
        <route edges="E20 E17 E15 E14"/>
    </vehicle>
    <vehicle id="309" depart="92.70">
        <route edges="E38 E37 E35 E30 E29 E27 E20 E17 E15 E11 E9 E6"/>
    </vehicle>
    <vehicle id="311" depart="93.30">
        <route edges="E22 E28 E31 E32 E36 E39 E48 gneE22 E53 E55"/>
    </vehicle>
    <vehicle id="317" depart="95.10">
        <route edges="E44 E46 E38 E37 E35 E30 E29 E27 E20 E17 E15 E11"/>
    </vehicle>
    <vehicle id="318" depart="95.40">
        <route edges="E30 E29 E27 E20 E17 E15 E11 E9 E6"/>
    </vehicle>
    <vehicle id="319" depart="95.70">
        <route edges="E4 E10 E12 E16 E18 E19 E21 E28 E31 E32 E36 E39 E45"/>
    </vehicle>
    <vehicle id="321" depart="96.30">
        <route edges="E10 E12 E16 E18 E19 E21 E28 E31 E32 E36 E39 E48 gneE22 E53"/>
    </vehicle>
    <vehicle id="322" depart="96.60">
        <route edges="E10 E12 E16 E18 E19 E21 E28 E31 E32 E36 E39 E48"/>
    </vehicle>
    <vehicle id="324" depart="97.20">
        <route edges="E18 E19 E21 E28 E31 E32 E36 E39 E48 gneE22 E53"/>
    </vehicle>
    <vehicle id="327" depart="98.10">
        <route edges="E28 E31 E32 E36 E39 E48 gneE22 E53 E57"/>
    </vehicle>
    <vehicle id="331" depart="99.30">
        <route edges="E42"/>
    </vehicle>
    <vehicle id="334" depart="100.20">
        <route edges="E15"/>
    </vehicle>
    <vehicle id="336" depart="100.80">
        <route edges="E19 E21 E24"/>
    </vehicle>
    <vehicle id="337" depart="101.10">
        <route edges="E22 E28 E31 E32 E36 E39 E48 gneE22 E53 E55"/>
    </vehicle>
    <vehicle id="339" depart="101.70">
        <route edges="E40 E42 E38 E37 E35 E30 E29 E27 E23"/>
    </vehicle>
    <vehicle id="342" depart="102.60">
        <route edges="E8 E10 E12 E16 E18 E19 E21 E28 E31 E32 E36"/>
    </vehicle>
    <vehicle id="344" depart="103.20">
        <route edges="E26 E25 E20 E17 E15 E11 E9 E2 E0"/>
    </vehicle>
    <vehicle id="348" depart="104.40">
        <route edges="E46 E38 E37 E35 E30 E29 E27 E20 E17 E15 E14"/>
    </vehicle>
    <vehicle id="351" depart="105.30">
        <route edges="E29 E27 E20"/>
    </vehicle>
    <vehicle id="354" depart="106.20">
        <route edges="E25 E28 E31 E32 E36 E39 E48 gneE22 E53 E55"/>
    </vehicle>
    <vehicle id="355" depart="106.50">
        <route edges="E1 E4 E10 E12 E16 E18"/>
    </vehicle>
    <vehicle id="359" depart="107.70">
        <route edges="E22 E28 E31 E32 E36 E39 E48 gneE22"/>
    </vehicle>
    <vehicle id="361" depart="108.30">
        <route edges="E50 E49 E47 E38 E37 E35 E30 E29 E27 E24"/>
    </vehicle>
    <vehicle id="362" depart="108.60">
        <route edges="E40 E42 E48 gneE22"/>
    </vehicle>
    <vehicle id="363" depart="108.90">
        <route edges="E20 E17 E15 E11 E9 E2"/>
    </vehicle>
    <vehicle id="366" depart="109.80">
        <route edges="E28 E31"/>
    </vehicle>
    <vehicle id="371" depart="111.30">
        <route edges="E40 E42 E38 E37 E35 E30 E29 E27 E20 E17 E15 E11 E9 E7"/>
    </vehicle>
    <vehicle id="375" depart="112.50">
        <route edges="E15"/>
    </vehicle>
    <vehicle id="382" depart="114.60">
        <route edges="E40 E42 E38 E37 E35 E30 E29 E27 E24"/>
    </vehicle>
    <vehicle id="385" depart="115.50">
        <route edges="E44 E46 E38 E37 E35 E30"/>
    </vehicle>
    <vehicle id="388" depart="116.40">
        <route edges="E35 E30 E29 E27 E20 E17"/>
    </vehicle>
    <vehicle id="393" depart="117.90">
        <route edges="E10 E12 E16 E18 E19 E21 E28 E31 E32 E36 E39 E45"/>
    </vehicle>
    <vehicle id="397" depart="119.10">
        <route edges="E10 E12 E16 E18 E19 E21 E28 E31 E32 E36 E39 E45"/>
    </vehicle>
    <vehicle id="399" depart="119.70">
        <route edges="E54 E57"/>
    </vehicle>
    <vehicle id="402" depart="120.60">
        <route edges="E26 E25 E23"/>
    </vehicle>
    <vehicle id="404" depart="121.20">
        <route edges="E20 E17 E15 E11 E9 E7"/>
    </vehicle>
    <vehicle id="405" depart="121.50">
        <route edges="E10 E12 E16 E18 E19 E21 E28 E31 E32 E36 E39 E48 gneE22 E53 E55"/>
    </vehicle>
    <vehicle id="407" depart="122.10">
        <route edges="E42 E38 E37 E35 E30 E29 E27 E20 E17 E15 E11 E9"/>
    </vehicle>
    <vehicle id="409" depart="122.70">
        <route edges="E44 E46 E38 E37 E35 E34"/>
    </vehicle>
    <vehicle id="410" depart="123.00">
        <route edges="E18 E19 E21 E28 E31 E32 E36 E39"/>
    </vehicle>
    <vehicle id="413" depart="123.90">
        <route edges="E40 E42 E38 E37 E35 E30 E29 E27"/>
    </vehicle>
    <vehicle id="416" depart="124.80">
        <route edges="E5 E10 E12 E16 E18 E19 E21 E28 E31 E32 E34"/>
    </vehicle>
    <vehicle id="418" depart="125.40">
        <route edges="E56 E52 E50 E49 E47 E38 E37 E35 E30 E29 E27 E20"/>
    </vehicle>
    <vehicle id="420" depart="126.00">
        <route edges="E42 E38 E37 E35"/>
    </vehicle>
    <vehicle id="421" depart="126.30">
        <route edges="E28 E31 E32 E36 E39 E41"/>
    </vehicle>
    <vehicle id="423" depart="126.90">
        <route edges="E48 gneE22 E53"/>
    </vehicle>
    <vehicle id="425" depart="127.50">
        <route edges="E56 E52 E50 E49 E47 E45 E43"/>
    </vehicle>
    <vehicle id="432" depart="129.60">
        <route edges="E4 E10"/>
    </vehicle>
    <vehicle id="433" depart="129.90">
        <route edges="E4 E10 E12 E16 E18 E19 E21 E28 E31"/>
    </vehicle>
    <vehicle id="436" depart="130.80">
        <route edges="E26 E25 E20 E17 E15 E11"/>
    </vehicle>
    <vehicle id="438" depart="131.40">
        <route edges="E33 E30 E29 E27 E20 E17 E15 E11"/>
    </vehicle>
    <vehicle id="441" depart="132.30">
        <route edges="E33 E30 E29 E27 E20 E17 E15 E11 E9"/>
    </vehicle>
    <vehicle id="443" depart="132.90">
        <route edges="E16 E18 E19 E21 E28"/>
    </vehicle>
    <vehicle id="444" depart="133.20">
        <route edges="E20"/>
    </vehicle>
    <vehicle id="450" depart="135.00">
        <route edges="E49 E47 E38 E37 E35 E30 E29 E27 E24"/>
    </vehicle>
    <vehicle id="451" depart="135.30">
        <route edges="E28 E31 E32"/>
    </vehicle>
    <vehicle id="452" depart="135.60">
        <route edges="E46 E48"/>
    </vehicle>
    <vehicle id="453" depart="135.90">
        <route edges="E1 E4"/>
    </vehicle>
    <vehicle id="454" depart="136.20">
        <route edges="E25 E28 E31 E32 E36 E39 E45"/>
    </vehicle>
    <vehicle id="463" depart="138.90">
        <route edges="E27 E20 E17 E15 E11 E9 E7"/>
    </vehicle>
    <vehicle id="465" depart="139.50">
        <route edges="E36 E39 E48 gneE22 E53"/>
    </vehicle>
    <vehicle id="466" depart="139.80">
        <route edges="E30 E29 E27 E20 E17 E15 E11 E9 E2 E0"/>
    </vehicle>
    <vehicle id="468" depart="140.40">
        <route edges="E16 E18 E19 E21 E28 E31 E32 E36 E39 E45"/>
    </vehicle>
    <vehicle id="471" depart="141.30">
        <route edges="E36 E39 E48"/>
    </vehicle>
    <vehicle id="472" depart="141.60">
        <route edges="E39 E48"/>
    </vehicle>
    <vehicle id="476" depart="142.80">
        <route edges="E28 E31 E32 E36 E39 E48 gneE22 E53"/>
    </vehicle>
    <vehicle id="477" depart="143.10">
        <route edges="E8 E10"/>
    </vehicle>
    <vehicle id="482" depart="144.60">
        <route edges="E37 E35 E30 E29"/>
    </vehicle>
    <vehicle id="483" depart="144.90">
        <route edges="E32 E36 E39 E41"/>
    </vehicle>
    <vehicle id="484" depart="145.20">
        <route edges="E44 E46 E48 gneE22 E53 E57"/>
    </vehicle>
    <vehicle id="485" depart="145.50">
        <route edges="E25 E20 E17 E15 E14"/>
    </vehicle>
    <vehicle id="487" depart="146.10">
        <route edges="E38 E37 E35 E30 E29 E27 E20 E17"/>
    </vehicle>
    <vehicle id="488" depart="146.40">
        <route edges="E56 E52 E50 E49 E47 E38 E37 E35 E30 E29 E27 E20"/>
    </vehicle>
    <vehicle id="490" depart="147.00">
        <route edges="E15 E14"/>
    </vehicle>
    <vehicle id="491" depart="147.30">
        <route edges="E4 E10 E12 E16 E18 E19 E21 E28 E31 E32 E34"/>
    </vehicle>
    <vehicle id="492" depart="147.60">
        <route edges="E38 E37 E35 E30 E29 E27"/>
    </vehicle>
    <vehicle id="495" depart="148.50">
        <route edges="E10 E12 E16 E18 E19"/>
    </vehicle>
    <vehicle id="497" depart="149.10">
        <route edges="E46 E38"/>
    </vehicle>
    <vehicle id="499" depart="149.70">
        <route edges="E56 E52 E50 E49 E47 E38 E37 E35 E30 E29"/>
    </vehicle>
    <vehicle id="500" depart="150.00">
        <route edges="E1 E4 E10 E12 E16 E18 E19 E21 E28 E31 E32 E36 E39 E48 gneE22 E53"/>
    </vehicle>
    <vehicle id="502" depart="150.60">
        <route edges="E52 E50 E49 E47 E38 E37 E35 E30 E29 E27 E20 E17 E15 E11 E9 E7"/>
    </vehicle>
    <vehicle id="510" depart="153.00">
        <route edges="E8 E10 E12 E16 E18"/>
    </vehicle>
    <vehicle id="511" depart="153.30">
        <route edges="E32"/>
    </vehicle>
    <vehicle id="515" depart="154.50">
        <route edges="E39 E48 gneE22"/>
    </vehicle>
    <vehicle id="516" depart="154.80">
        <route edges="E49 E47 E38 E37 E35 E30 E29"/>
    </vehicle>
    <vehicle id="518" depart="155.40">
        <route edges="E22 E28 E31 E32 E36 E39"/>
    </vehicle>
    <vehicle id="519" depart="155.70">
        <route edges="E40 E42 E48 gneE22 E53"/>
    </vehicle>
    <vehicle id="521" depart="156.30">
        <route edges="E5 E10 E12 E16 E18 E19 E21 E28"/>
    </vehicle>
    <vehicle id="526" depart="157.80">
        <route edges="E33 E30 E29 E27 E20 E17 E15 E11 E9"/>
    </vehicle>
    <vehicle id="532" depart="159.60">
        <route edges="E4 E10 E12 E16 E18 E19 E21 E28 E31 E32 E36 E39 E48 gneE22 E53 E55"/>
    </vehicle>
    <vehicle id="536" depart="160.80">
        <route edges="E26 E25 E20 E17 E15 E11"/>
    </vehicle>
    <vehicle id="537" depart="161.10">
        <route edges="E39 E48"/>
    </vehicle>
    <vehicle id="540" depart="162.00">
        <route edges="E22 E28 E31 E32 E36 E39 E48 gneE22 E53 E55"/>
    </vehicle>
    <vehicle id="545" depart="163.50">
        <route edges="E5 E10 E12 E16 E18 E19 E21 E28 E31 E32 E36 E39 E41"/>
    </vehicle>
    <vehicle id="547" depart="164.10">
        <route edges="E19 E21 E28 E31 E32 E36 E39 E48"/>
    </vehicle>
    <vehicle id="549" depart="164.70">
        <route edges="E44 E46 E38 E37 E35 E30 E29 E27 E24"/>
    </vehicle>
    <vehicle id="550" depart="165.00">
        <route edges="E8 E10 E12 E16 E18 E19 E21 E24"/>
    </vehicle>
    <vehicle id="554" depart="166.20">
        <route edges="E56 E52 E50"/>
    </vehicle>
    <vehicle id="556" depart="166.80">
        <route edges="E40 E42 E38 E37 E35 E30 E29 E27 E20 E17 E15 E14"/>
    </vehicle>
    <vehicle id="557" depart="167.10">
        <route edges="E25 E23"/>
    </vehicle>
    <vehicle id="559" depart="167.70">
        <route edges="E21 E28 E31 E32 E36 E39"/>
    </vehicle>
    <vehicle id="565" depart="169.50">
        <route edges="E8 E10 E12"/>
    </vehicle>
    <vehicle id="566" depart="169.80">
        <route edges="E33 E36 E39 E48 gneE22 E53"/>
    </vehicle>
    <vehicle id="571" depart="171.30">
        <route edges="E54 E57 E58"/>
    </vehicle>
    <vehicle id="575" depart="172.50">
        <route edges="E33 E30 E29 E27"/>
    </vehicle>
    <vehicle id="577" depart="173.10">
        <route edges="E46 E38 E37 E35 E30 E29 E27 E23"/>
    </vehicle>
    <vehicle id="579" depart="173.70">
        <route edges="E20 E17 E15 E11 E9 E2 E0"/>
    </vehicle>
    <vehicle id="583" depart="174.90">
        <route edges="E29 E27 E20 E17 E15 E11 E9 E2"/>
    </vehicle>
    <vehicle id="592" depart="177.60">
        <route edges="E4 E10 E12 E16 E18 E19 E21 E28 E31 E32 E36 E39 E41"/>
    </vehicle>
    <vehicle id="593" depart="177.90">
        <route edges="E46 E38 E37 E35 E30 E29 E27 E20 E17 E15 E11 E9 E2"/>
    </vehicle>
    <vehicle id="597" depart="179.10">
        <route edges="E26 E25 E20 E17 E15 E11"/>
    </vehicle>
    <vehicle id="599" depart="179.70">
        <route edges="E28 E31 E32"/>
    </vehicle>
    <vehicle id="603" depart="180.90">
        <route edges="E50 E49 E47 E38 E37"/>
    </vehicle>
    <vehicle id="610" depart="183.00">
        <route edges="E8 E10 E12 E16 E18 E19 E21 E28 E31 E32 E36 E39 E48"/>
    </vehicle>
    <vehicle id="612" depart="183.60">
        <route edges="E40 E42 E45"/>
    </vehicle>
    <vehicle id="619" depart="185.70">
        <route edges="E22 E20 E17 E15 E14"/>
    </vehicle>
    <vehicle id="621" depart="186.30">
        <route edges="E10 E12 E16 E18 E19 E21 E28 E31 E32 E34"/>
    </vehicle>
    <vehicle id="622" depart="186.60">
        <route edges="E47 E38 E37 E35 E30 E29 E27 E20"/>
    </vehicle>
    <vehicle id="624" depart="187.20">
        <route edges="E18 E19 E21 E28 E31 E32 E36 E39 E48 gneE22 E53 E55"/>
    </vehicle>
    <vehicle id="626" depart="187.80">
        <route edges="E49 E47 E38 E37 E35 E30 E29 E27 E23"/>
    </vehicle>
    <vehicle id="629" depart="188.70">
        <route edges="E13 E16 E18 E19 E21 E28"/>
    </vehicle>
    <vehicle id="631" depart="189.30">
        <route edges="E10"/>
    </vehicle>
    <vehicle id="633" depart="189.90">
        <route edges="E4 E7"/>
    </vehicle>
    <vehicle id="634" depart="190.20">
        <route edges="E52 E50 E49"/>
    </vehicle>
    <vehicle id="635" depart="190.50">
        <route edges="E19 E21"/>
    </vehicle>
    <vehicle id="638" depart="191.40">
        <route edges="E13 E16 E18 E19 E21 E28"/>
    </vehicle>
    <vehicle id="639" depart="191.70">
        <route edges="E15 E11"/>
    </vehicle>
    <vehicle id="642" depart="192.60">
        <route edges="E50 E49 E47"/>
    </vehicle>
    <vehicle id="648" depart="194.40">
        <route edges="E28 E31 E32 E36 E39 E45 E43"/>
    </vehicle>
    <vehicle id="650" depart="195.00">
        <route edges="E1 E4 E10 E12 E16 E18 E19 E21"/>
    </vehicle>
    <vehicle id="654" depart="196.20">
        <route edges="E1 E4 E10 E12 E16 E18 E19 E21 E28 E31 E32 E36 E39"/>
    </vehicle>
    <vehicle id="655" depart="196.50">
        <route edges="E18 E19 E21 E28 E31 E32 E36 E39"/>
    </vehicle>
    <vehicle id="661" depart="198.30">
        <route edges="E44 E46 E38 E37 E35 E30 E29 E27 E20 E17 E15 E11 E9 E2 E0"/>
    </vehicle>
    <vehicle id="663" depart="198.90">
        <route edges="gneE22 E53 E57 E58"/>
    </vehicle>
    <vehicle id="669" depart="200.70">
        <route edges="E29 E27"/>
    </vehicle>
    <vehicle id="670" depart="201.00">
        <route edges="E56 E52 E50 E49 E47 E38 E37 E35 E30 E29 E27 E20 E17 E15 E11 E9 E2"/>
    </vehicle>
    <vehicle id="671" depart="201.30">
        <route edges="E46 E38 E37 E35 E30 E29 E27 E20 E17 E15"/>
    </vehicle>
    <vehicle id="674" depart="202.20">
        <route edges="E10 E12"/>
    </vehicle>
    <vehicle id="675" depart="202.50">
        <route edges="E49 E47 E38 E37 E35"/>
    </vehicle>
    <vehicle id="678" depart="203.40">
        <route edges="gneE22"/>
    </vehicle>
    <vehicle id="683" depart="204.90">
        <route edges="E46 E48 gneE22 E53 E57 E58"/>
    </vehicle>
    <vehicle id="685" depart="205.50">
        <route edges="E10 E12 E16"/>
    </vehicle>
    <vehicle id="686" depart="205.80">
        <route edges="E42 E48 gneE22 E53 E57"/>
    </vehicle>
    <vehicle id="687" depart="206.10">
        <route edges="E33 E36 E39 E41"/>
    </vehicle>
    <vehicle id="688" depart="206.40">
        <route edges="E17 E15 E11 E9 E7"/>
    </vehicle>
    <vehicle id="690" depart="207.00">
        <route edges="E31 E32 E36 E39 E48 gneE22 E53 E57 E58"/>
    </vehicle>
    <vehicle id="694" depart="208.20">
        <route edges="E47 E38 E37 E35 E30 E29 E27 E20 E17 E15 E14"/>
    </vehicle>
    <vehicle id="695" depart="208.50">
        <route edges="E50 E49 E47 E38 E37 E35 E30 E29 E27 E20"/>
    </vehicle>
    <vehicle id="698" depart="209.40">
        <route edges="E36 E39 E48 gneE22 E53 E57 E58"/>
    </vehicle>
    <vehicle id="707" depart="212.10">
        <route edges="E5 E10 E12 E16 E18 E19 E21 E28 E31 E32 E36 E39 E45 E43"/>
    </vehicle>
    <vehicle id="708" depart="212.40">
        <route edges="E15"/>
    </vehicle>
    <vehicle id="709" depart="212.70">
        <route edges="E18 E19 E21"/>
    </vehicle>
    <vehicle id="712" depart="213.60">
        <route edges="E4"/>
    </vehicle>
    <vehicle id="713" depart="213.90">
        <route edges="E44 E46 E38 E37 E35 E30 E29 E27 E20"/>
    </vehicle>
    <vehicle id="715" depart="214.50">
        <route edges="E12 E16 E18 E19 E21 E28 E31 E32 E36 E39 E45"/>