<?xml version="1.0" encoding="UTF-8"?>

<!-- generated on 2021-09-29 19:49:17 by Eclipse SUMO duarouter Version 1.9.2
<configuration xmlns:xsi="http://www.w3.org/2001/XMLSchema-instance" xsi:noNamespaceSchemaLocation="http://sumo.dlr.de/xsd/duarouterConfiguration.xsd">

    <input>
        <net-file value="/home/sonic/Desktop/nets/case06/intersection.net.xml"/>
        <route-files value="trips.trips.xml"/>
    </input>

    <output>
        <output-file value="intersection_random42.rou.xml"/>
        <alternatives-output value="intersection_random42.rou.alt.xml"/>
    </output>

    <time>
        <begin value="0"/>
        <end value="18000.0"/>
    </time>

    <report>
        <no-warnings value="true"/>
        <ignore-errors value="true"/>
        <no-step-log value="true"/>
    </report>

</configuration>
-->

<routes xmlns:xsi="http://www.w3.org/2001/XMLSchema-instance" xsi:noNamespaceSchemaLocation="http://sumo.dlr.de/xsd/routes_file.xsd">
    <vehicle id="7" depart="2.10">
        <route edges="E27"/>
    </vehicle>
    <vehicle id="16" depart="4.80">
        <route edges="E21 E28 E31 E32 E36 E39 E48 gneE22 E53 E57 E58"/>
    </vehicle>
    <vehicle id="20" depart="6.00">
        <route edges="E52 E50 E49 E47 E38 E37 E35 E30 E29 E27 E20 E17 E15 E14"/>
    </vehicle>
    <vehicle id="23" depart="6.90">
        <route edges="E8 E10 E12 E16 E18 E19 E21 E28 E31 E32 E36 E39 E48 gneE22"/>
    </vehicle>
    <vehicle id="34" depart="10.20">
        <route edges="E50 E49 E47 E38 E37 E35 E30 E29 E27 E20"/>
    </vehicle>
    <vehicle id="35" depart="10.50">
        <route edges="E44 E46 E48"/>
    </vehicle>
    <vehicle id="36" depart="10.80">
        <route edges="E20"/>
    </vehicle>
    <vehicle id="37" depart="11.10">
        <route edges="E42 E38 E37 E35 E30 E29 E27 E24"/>
    </vehicle>
    <vehicle id="39" depart="11.70">
        <route edges="E26 E25 E28 E31"/>
    </vehicle>
    <vehicle id="43" depart="12.90">
        <route edges="E16 E18 E19 E21 E28 E31 E32 E36 E39"/>
    </vehicle>
    <vehicle id="47" depart="14.10">
        <route edges="E44 E46 E38"/>
    </vehicle>
    <vehicle id="49" depart="14.70">
        <route edges="E50 E49 E47 E38"/>
    </vehicle>
    <vehicle id="50" depart="15.00">
        <route edges="E25 E20"/>
    </vehicle>
    <vehicle id="52" depart="15.60">
        <route edges="E5 E10 E12 E16"/>
    </vehicle>
    <vehicle id="54" depart="16.20">
        <route edges="E1 E4 E10 E12 E16"/>
    </vehicle>
    <vehicle id="56" depart="16.80">
        <route edges="E11 E9 E6"/>
    </vehicle>
    <vehicle id="60" depart="18.00">
        <route edges="E16 E18 E19"/>
    </vehicle>
    <vehicle id="61" depart="18.30">
        <route edges="E46 E38 E37 E35 E30 E29 E27 E23"/>
    </vehicle>
    <vehicle id="62" depart="18.60">
        <route edges="E33 E30 E29 E27 E20 E17 E15 E11 E9 E6"/>
    </vehicle>
    <vehicle id="67" depart="20.10">
        <route edges="E37 E35 E30 E29 E27 E24"/>
    </vehicle>
    <vehicle id="76" depart="22.80">
        <route edges="E36 E39 E48"/>
    </vehicle>
    <vehicle id="77" depart="23.10">
        <route edges="E53"/>
    </vehicle>
    <vehicle id="79" depart="23.70">
        <route edges="E27 E20 E17"/>
    </vehicle>
    <vehicle id="80" depart="24.00">
        <route edges="E4 E10 E12 E16 E18 E19 E21 E28 E31 E32 E34"/>
    </vehicle>
    <vehicle id="81" depart="24.30">
        <route edges="E1 E4 E10 E12 E16 E18 E19 E21 E28 E31 E32 E34"/>
    </vehicle>
    <vehicle id="83" depart="24.90">
        <route edges="E50 E49 E47 E38 E37 E35 E34"/>
    </vehicle>
    <vehicle id="85" depart="25.50">
        <route edges="E30 E29 E27 E20 E17 E15 E11 E9"/>
    </vehicle>
    <vehicle id="88" depart="26.40">
        <route edges="E37 E35 E30 E29 E27 E20 E17 E15 E11 E9 E2"/>
    </vehicle>
    <vehicle id="90" depart="27.00">
        <route edges="E5 E10 E12 E16 E18 E19 E21 E28 E31 E32 E36 E39 E48 gneE22 E53 E55"/>
    </vehicle>
    <vehicle id="91" depart="27.30">
        <route edges="E52 E50 E49 E47 E38 E37 E35 E30 E29 E27 E20 E17 E15 E11 E9 E7"/>
    </vehicle>
    <vehicle id="93" depart="27.90">
        <route edges="E1 E4 E10 E12 E16 E18 E19 E21 E28 E31 E32 E36 E39 E48 gneE22 E53 E57"/>
    </vehicle>
    <vehicle id="94" depart="28.20">
        <route edges="E56 E52 E50 E49 E47 E45"/>
    </vehicle>
    <vehicle id="96" depart="28.80">
        <route edges="E32 E36 E39 E45 E43"/>
    </vehicle>
    <vehicle id="98" depart="29.40">
        <route edges="E11"/>
    </vehicle>
    <vehicle id="99" depart="29.70">
        <route edges="E18"/>
    </vehicle>
    <vehicle id="101" depart="30.30">
        <route edges="E35 E34"/>
    </vehicle>
    <vehicle id="104" depart="31.20">
        <route edges="E56 E52 E50 E49 E47 E38 E37 E35"/>
    </vehicle>
    <vehicle id="111" depart="33.30">
        <route edges="E35"/>
    </vehicle>
    <vehicle id="112" depart="33.60">
        <route edges="E22 E28 E31 E32"/>
    </vehicle>
    <vehicle id="119" depart="35.70">
        <route edges="E27 E20 E17 E15 E11 E9 E2"/>
    </vehicle>
    <vehicle id="121" depart="36.30">
        <route edges="E9"/>
    </vehicle>
    <vehicle id="125" depart="37.50">
        <route edges="E10 E12 E16 E18 E19 E21 E28 E31 E32 E36 E39 E45 E43"/>
    </vehicle>
    <vehicle id="126" depart="37.80">
        <route edges="E42 E48"/>
    </vehicle>
    <vehicle id="134" depart="40.20">
        <route edges="E5 E10 E12 E16 E18 E19 E21 E28 E31"/>
    </vehicle>
    <vehicle id="135" depart="40.50">
        <route edges="E25 E20 E17 E15 E11 E9"/>
    </vehicle>
    <vehicle id="136" depart="40.80">
        <route edges="E5 E10 E12 E16 E18 E19 E21 E28 E31 E32"/>
    </vehicle>
    <vehicle id="139" depart="41.70">
        <route edges="E10 E12 E16 E18 E19 E21"/>
    </vehicle>
    <vehicle id="141" depart="42.30">
        <route edges="E30 E29 E27 E23"/>
    </vehicle>
    <vehicle id="142" depart="42.60">
        <route edges="E46 E48 gneE22 E53 E55"/>
    </vehicle>
    <vehicle id="150" depart="45.00">
        <route edges="E47 E38 E37 E35 E30 E29 E27 E20 E17"/>
    </vehicle>
    <vehicle id="154" depart="46.20">
        <route edges="E46 E38 E37 E35 E30 E29 E27 E23"/>
    </vehicle>
    <vehicle id="159" depart="47.70">
        <route edges="E10 E12 E16 E18 E19 E21 E28 E31 E32 E34"/>
    </vehicle>
    <vehicle id="161" depart="48.30">
        <route edges="E1 E4 E10 E12 E16 E18 E19 E21 E28 E31 E32 E36 E39 E48 gneE22"/>
    </vehicle>
    <vehicle id="162" depart="48.60">
        <route edges="E25 E28 E31 E32 E36 E39 E48 gneE22 E53 E55"/>
    </vehicle>
    <vehicle id="164" depart="49.20">
        <route edges="E10 E12 E16 E18 E19 E21 E23"/>
    </vehicle>
    <vehicle id="167" depart="50.10">
        <route edges="E42 E38"/>
    </vehicle>
    <vehicle id="174" depart="52.20">
        <route edges="E28 E31 E32 E36 E39 E45"/>
    </vehicle>
    <vehicle id="176" depart="52.80">
        <route edges="E5 E10 E12 E16 E18 E19 E21"/>
    </vehicle>
    <vehicle id="177" depart="53.10">
        <route edges="E54 E52 E50 E49 E47 E38 E37 E35 E30 E29 E27 E20 E17 E15 E11 E9 E6"/>
    </vehicle>
    <vehicle id="179" depart="53.70">
        <route edges="E28 E31"/>
    </vehicle>
    <vehicle id="180" depart="54.00">
        <route edges="E29 E27 E20"/>
    </vehicle>
    <vehicle id="182" depart="54.60">
        <route edges="E44 E46 E48"/>
    </vehicle>
    <vehicle id="183" depart="54.90">
        <route edges="E5 E2"/>
    </vehicle>
    <vehicle id="184" depart="55.20">
        <route edges="E42 E38 E37 E35 E30"/>
    </vehicle>
    <vehicle id="185" depart="55.50">
        <route edges="E44 E46 E41"/>
    </vehicle>
    <vehicle id="186" depart="55.80">
        <route edges="E8 E10 E12 E16 E18 E19 E21 E28 E31"/>
    </vehicle>
    <vehicle id="188" depart="56.40">
        <route edges="E33 E36 E39 E41"/>
    </vehicle>
    <vehicle id="190" depart="57.00">
        <route edges="E30 E29 E27 E20 E17 E15 E11 E9 E2 E0"/>
    </vehicle>
    <vehicle id="191" depart="57.30">
        <route edges="E54 E57 E58"/>
    </vehicle>
    <vehicle id="193" depart="57.90">
        <route edges="E49 E47 E38 E37 E35 E34"/>
    </vehicle>
    <vehicle id="195" depart="58.50">
        <route edges="E19 E21"/>
    </vehicle>
    <vehicle id="196" depart="58.80">
        <route edges="E37 E35 E30 E29 E27 E20"/>
    </vehicle>
    <vehicle id="197" depart="59.10">
        <route edges="E49 E47 E38 E37 E35 E30 E29 E27 E20 E17 E15 E14"/>
    </vehicle>
    <vehicle id="198" depart="59.40">
        <route edges="E16 E18 E19 E21 E28"/>
    </vehicle>
    <vehicle id="207" depart="62.10">
        <route edges="E50 E49 E47 E38 E37 E35 E30 E29 E27 E20 E17 E15 E11 E9 E7"/>
    </vehicle>
    <vehicle id="210" depart="63.00">
        <route edges="E9 E2 E0"/>
    </vehicle>
    <vehicle id="220" depart="66.00">
        <route edges="E31 E32 E36 E39"/>
    </vehicle>
    <vehicle id="224" depart="67.20">
        <route edges="E8 E10 E12 E16 E18 E19 E21 E28 E31 E32 E36 E39 E45 E43"/>
    </vehicle>
    <vehicle id="227" depart="68.10">
        <route edges="E47 E38 E37 E35 E30 E29 E27 E20 E17 E15 E11 E9 E2"/>
    </vehicle>
    <vehicle id="231" depart="69.30">
        <route edges="E38 E37 E35 E30 E29 E27 E20 E17 E15 E11 E9 E6"/>
    </vehicle>
    <vehicle id="233" depart="69.90">
        <route edges="E4 E10 E12 E16 E18 E19 E21 E28 E31 E32 E36 E39 E45"/>
    </vehicle>
    <vehicle id="235" depart="70.50">
        <route edges="E25 E20 E17 E15 E11"/>
    </vehicle>
    <vehicle id="239" depart="71.70">
        <route edges="E33 E36 E39 E48 gneE22 E53 E57"/>
    </vehicle>
    <vehicle id="241" depart="72.30">
        <route edges="E44 E46 E38 E37 E35 E30 E29 E27 E20 E17 E15"/>
    </vehicle>
    <vehicle id="246" depart="73.80">
        <route edges="E27 E20"/>
    </vehicle>
    <vehicle id="253" depart="75.90">
        <route edges="E48 gneE22 E53"/>
    </vehicle>
    <vehicle id="254" depart="76.20">
        <route edges="E35 E30 E29 E27 E20 E17 E15 E11 E9"/>
    </vehicle>
    <vehicle id="255" depart="76.50">
        <route edges="E40 E42 E38 E37 E35 E30 E29 E27 E20 E17 E15 E11 E9 E7"/>
    </vehicle>
    <vehicle id="256" depart="76.80">
        <route edges="E4 E10 E12 E16"/>
    </vehicle>
    <vehicle id="263" depart="78.90">
        <route edges="E5 E10 E12 E16 E18 E19 E21 E28 E31 E32 E36 E39 E48 gneE22 E53 E57"/>
    </vehicle>
    <vehicle id="264" depart="79.20">
        <route edges="E26 E25 E20 E17 E15 E11 E9 E2 E0"/>
    </vehicle>
    <vehicle id="265" depart="79.50">
        <route edges="E35 E30 E29 E27 E20 E17"/>
    </vehicle>
    <vehicle id="267" depart="80.10">
        <route edges="E29 E27 E23"/>
    </vehicle>
    <vehicle id="274" depart="82.20">
        <route edges="E21 E28 E31 E32 E36 E39 E48 gneE22 E53 E55"/>
    </vehicle>
    <vehicle id="277" depart="83.10">
        <route edges="E42 E38 E37 E35 E30 E29 E27 E20 E17"/>
    </vehicle>
    <vehicle id="280" depart="84.00">
        <route edges="E20 E17 E15 E11 E9 E2"/>
    </vehicle>
    <vehicle id="281" depart="84.30">
        <route edges="E35 E34"/>
    </vehicle>
    <vehicle id="289" depart="86.70">
        <route edges="E20"/>
    </vehicle>
    <vehicle id="291" depart="87.30">
        <route edges="E20 E17 E15 E14"/>
    </vehicle>
    <vehicle id="296" depart="88.80">
        <route edges="E5 E10 E12 E16 E18 E19 E21 E28 E31 E32 E36 E39"/>
    </vehicle>
    <vehicle id="299" depart="89.70">
        <route edges="E56 E52 E50 E49 E47 E41"/>
    </vehicle>
    <vehicle id="301" depart="90.30">
        <route edges="E35"/>
    </vehicle>
    <vehicle id="302" depart="90.60">
        <route edges="E10 E12 E14"/>
    </vehicle>
    <vehicle id="306" depart="91.80">
        <route edges="E52 E50 E49 E47 E38 E37 E35 E30 E29 E27 E20 E17 E15 E14"/>
    </vehicle>
    <vehicle id="313" depart="93.90">
        <route edges="E54 E52 E50 E49 E47 E38 E37 E35 E30 E29 E27 E24"/>
    </vehicle>
    <vehicle id="314" depart="94.20">
        <route edges="E42"/>
    </vehicle>
    <vehicle id="315" depart="94.50">
        <route edges="E40 E42 E38 E37 E35 E30 E29 E27 E20 E17 E15 E11"/>
    </vehicle>
    <vehicle id="316" depart="94.80">
        <route edges="E18 E19 E21 E28 E31 E32 E36 E39"/>
    </vehicle>
    <vehicle id="317" depart="95.10">
        <route edges="E19 E21 E28 E31"/>
    </vehicle>
    <vehicle id="318" depart="95.40">
        <route edges="E16 E18 E19 E21 E28 E31 E32 E36 E39 E41"/>
    </vehicle>
    <vehicle id="319" depart="95.70">
        <route edges="E18 E19 E21 E28 E31 E32 E36 E39 E45"/>
    </vehicle>
    <vehicle id="327" depart="98.10">
        <route edges="E48 gneE22"/>
    </vehicle>
    <vehicle id="329" depart="98.70">
        <route edges="E22 E20 E17 E15"/>
    </vehicle>
    <vehicle id="333" depart="99.90">
        <route edges="E40 E42 E48 gneE22"/>
    </vehicle>
    <vehicle id="336" depart="100.80">
        <route edges="E26 E25 E20 E17 E15 E14"/>
    </vehicle>
    <vehicle id="340" depart="102.00">
        <route edges="E56 E52 E50 E49"/>
    </vehicle>
    <vehicle id="343" depart="102.90">
        <route edges="E44 E46 E38 E37 E35 E30 E29 E27 E20 E17 E15 E11 E9 E6"/>
    </vehicle>
    <vehicle id="344" depart="103.20">
        <route edges="E18 E19 E21 E28 E31 E32"/>
    </vehicle>
    <vehicle id="349" depart="104.70">
        <route edges="E16 E18 E19 E21 E28"/>
    </vehicle>
    <vehicle id="351" depart="105.30">
        <route edges="E25 E28 E31 E32 E36 E39 E48 gneE22 E53 E57 E58"/>
    </vehicle>
    <vehicle id="354" depart="106.20">
        <route edges="E44 E46 E38 E37 E35 E30 E29 E27 E20 E17 E15 E11 E9 E2"/>
    </vehicle>
    <vehicle id="355" depart="106.50">
        <route edges="E4 E10 E12 E16 E18 E19 E21 E28"/>
    </vehicle>
    <vehicle id="357" depart="107.10">
        <route edges="E38 E37 E35 E30 E29 E27 E20"/>
    </vehicle>
    <vehicle id="360" depart="108.00">
        <route edges="E53 E57"/>
    </vehicle>
    <vehicle id="361" depart="108.30">
        <route edges="E19 E21 E24"/>
    </vehicle>
    <vehicle id="365" depart="109.50">
        <route edges="E19 E21 E28 E31 E32 E36 E39 E48"/>
    </vehicle>
    <vehicle id="370" depart="111.00">
        <route edges="E5 E10 E12 E16 E18"/>
    </vehicle>
    <vehicle id="379" depart="113.70">
        <route edges="E44 E46 E38 E37 E35 E30 E29 E27"/>
    </vehicle>
    <vehicle id="384" depart="115.20">
        <route edges="E25 E28 E31 E32 E36 E39 E48 gneE22 E53 E55"/>
    </vehicle>
    <vehicle id="386" depart="115.80">
        <route edges="E47 E38 E37 E35 E30 E29 E27 E20 E17 E15"/>
    </vehicle>
    <vehicle id="388" depart="116.40">
        <route edges="E22 E20 E17 E15 E11 E9"/>
    </vehicle>
    <vehicle id="389" depart="116.70">
        <route edges="E36 E39 E45 E43"/>
    </vehicle>
    <vehicle id="391" depart="117.30">
        <route edges="E39 E41"/>
    </vehicle>
    <vehicle id="393" depart="117.90">
        <route edges="E42 E38 E37 E35 E30 E29 E27 E20 E17 E15"/>
    </vehicle>
    <vehicle id="395" depart="118.50">
        <route edges="E49 E47 E38 E37 E35 E30 E29 E27 E20 E17 E15 E11 E9"/>
    </vehicle>
    <vehicle id="398" depart="119.40">
        <route edges="gneE22 E53"/>
    </vehicle>
    <vehicle id="400" depart="120.00">
        <route edges="E48 gneE22 E53 E57 E58"/>
    </vehicle>
    <vehicle id="401" depart="120.30">
        <route edges="E5 E10 E12 E16 E18 E19 E21 E28 E31 E32 E36 E39 E48 gneE22 E53 E57"/>
    </vehicle>
    <vehicle id="404" depart="121.20">
        <route edges="E19"/>
    </vehicle>
    <vehicle id="408" depart="122.40">
        <route edges="E9 E7"/>
    </vehicle>
    <vehicle id="413" depart="123.90">
        <route edges="E56 E52 E50 E49 E47 E45 E43"/>
    </vehicle>
    <vehicle id="417" depart="125.10">
        <route edges="E50 E49 E47 E38 E37 E35 E30 E29 E27 E20"/>
    </vehicle>
    <vehicle id="425" depart="127.50">
        <route edges="E4 E10 E12 E16 E18 E19 E21"/>
    </vehicle>
    <vehicle id="426" depart="127.80">
        <route edges="E28 E31 E32 E34"/>
    </vehicle>
    <vehicle id="429" depart="128.70">
        <route edges="E8 E10 E12 E16 E18 E19 E21 E23"/>
    </vehicle>
    <vehicle id="430" depart="129.00">
        <route edges="E9"/>
    </vehicle>
    <vehicle id="439" depart="131.70">
        <route edges="E33 E36 E39 E48 gneE22"/>
    </vehicle>
    <vehicle id="442" depart="132.60">
        <route edges="E15 E11 E9 E6"/>
    </vehicle>
    <vehicle id="447" depart="134.10">
        <route edges="E4 E10 E12 E16 E18 E19 E21 E28 E31 E32"/>
    </vehicle>
    <vehicle id="455" depart="136.50">
        <route edges="E1 E4 E10 E12 E16 E18 E19 E21 E28 E31 E32 E36 E39 E48"/>
    </vehicle>
    <vehicle id="460" depart="138.00">
        <route edges="E5 E10 E12 E16 E18 E19 E21 E28 E31 E32 E34"/>
    </vehicle>
    <vehicle id="466" depart="139.80">
        <route edges="E32 E36 E39 E48 gneE22 E53"/>
    </vehicle>
    <vehicle id="467" depart="140.10">
        <route edges="E35 E30 E29 E27 E20 E17 E15 E11 E9 E7"/>
    </vehicle>
    <vehicle id="471" depart="141.30">
        <route edges="E56 E52 E50 E49 E47 E38 E37 E35 E30 E29 E27 E20 E17 E15 E11 E9 E2 E0"/>
    </vehicle>
    <vehicle id="480" depart="144.00">
        <route edges="E37 E35 E30 E29 E27"/>
    </vehicle>
    <vehicle id="484" depart="145.20">
        <route edges="E46 E38 E37 E35 E30 E29 E27"/>
    </vehicle>
    <vehicle id="486" depart="145.80">
        <route edges="E21 E28 E31 E32 E36 E39 E48 gneE22 E53 E55"/>
    </vehicle>
    <vehicle id="488" depart="146.40">
        <route edges="E2"/>
    </vehicle>
    <vehicle id="493" depart="147.90">
        <route edges="E5 E10 E12 E16 E18 E19 E21 E28 E31 E32 E34"/>
    </vehicle>
    <vehicle id="495" depart="148.50">
        <route edges="E12 E16 E18 E19 E21 E28 E31 E32 E36 E39 E48"/>
    </vehicle>
    <vehicle id="497" depart="149.10">
        <route edges="E54 E52 E50 E49"/>
    </vehicle>
    <vehicle id="503" depart="150.90">
        <route edges="E26 E25 E28 E31 E32"/>
    </vehicle>
    <vehicle id="504" depart="151.20">
        <route edges="E32 E36 E39 E48 gneE22"/>
    </vehicle>
    <vehicle id="505" depart="151.50">
        <route edges="E12 E16 E18 E19"/>
    </vehicle>
    <vehicle id="506" depart="151.80">
        <route edges="E15 E11 E9"/>
    </vehicle>
    <vehicle id="507" depart="152.10">
        <route edges="E15 E11 E9 E6"/>
    </vehicle>
    <vehicle id="508" depart="152.40">
        <route edges="E40 E42 E38 E37 E35 E30 E29 E27 E20 E17 E15 E11 E9"/>
    </vehicle>
    <vehicle id="516" depart="154.80">
        <route edges="E13 E16 E18"/>
    </vehicle>
    <vehicle id="517" depart="155.10">
        <route edges="E26 E25 E28 E31 E32 E36 E39 E45 E43"/>
    </vehicle>
    <vehicle id="520" depart="156.00">
        <route edges="E12 E16 E18 E19 E21 E28 E31 E32 E36 E39 E48 gneE22 E53 E55"/>
    </vehicle>
    <vehicle id="521" depart="156.30">
        <route edges="E25 E20 E17 E15 E11"/>
    </vehicle>
    <vehicle id="522" depart="156.60">
        <route edges="E1 E4 E10 E12 E16 E18 E19 E21 E28 E31 E32 E34"/>
    </vehicle>
    <vehicle id="527" depart="158.10">
        <route edges="E42 E48 gneE22"/>
    </vehicle>
    <vehicle id="531" depart="159.30">
        <route edges="E31 E32 E36 E39 E48 gneE22 E53 E55"/>
    </vehicle>
    <vehicle id="533" depart="159.90">
        <route edges="E54 E52 E50"/>
    </vehicle>
    <vehicle id="534" depart="160.20">
        <route edges="E26 E25 E20 E17 E15"/>
    </vehicle>
    <vehicle id="539" depart="161.70">
        <route edges="E19 E21 E28 E31 E32 E36"/>
    </vehicle>
    <vehicle id="547" depart="164.10">
        <route edges="E26 E25 E28 E31 E32 E36 E39"/>
    </vehicle>
    <vehicle id="555" depart="166.50">
        <route edges="E17 E15 E11 E9 E7"/>
    </vehicle>
    <vehicle id="558" depart="167.40">
        <route edges="E38 E37 E35 E30 E29"/>
    </vehicle>
    <vehicle id="559" depart="167.70">
        <route edges="E21 E28 E31"/>
    </vehicle>
    <vehicle id="561" depart="168.30">
        <route edges="E56 E52 E50 E49 E47 E38 E37 E35 E30 E29 E27 E20"/>
    </vehicle>
    <vehicle id="562" depart="168.60">
        <route edges="E33 E30 E29 E27 E20 E17 E15 E11 E9 E6"/>
    </vehicle>
    <vehicle id="563" depart="168.90">
        <route edges="E36 E39 E48 gneE22 E53 E57"/>
    </vehicle>
    <vehicle id="567" depart="170.10">
        <route edges="E40 E42 E38 E37 E35 E30 E29 E27"/>
    </vehicle>
    <vehicle id="569" depart="170.70">
        <route edges="E47 E38 E37 E35 E30 E29"/>
    </vehicle>
    <vehicle id="573" depart="171.90">
        <route edges="E48 gneE22 E53 E57 E58"/>
    </vehicle>
    <vehicle id="575" depart="172.50">
        <route edges="E12 E16 E18 E19 E21 E28 E31 E32 E36 E39 E48 gneE22 E53 E57"/>
    </vehicle>
    <vehicle id="577" depart="173.10">
        <route edges="E46 E38 E37 E35 E30 E29 E27 E24"/>
    </vehicle>
    <vehicle id="578" depart="173.40">
        <route edges="E22 E20 E17 E15 E11"/>
    </vehicle>
    <vehicle id="581" depart="174.30">
        <route edges="E27 E20 E17 E15 E11 E9 E6"/>
    </vehicle>
    <vehicle id="582" depart="174.60">
        <route edges="E38 E37 E35 E30 E29 E27 E20 E17 E15 E11"/>
    </vehicle>
    <vehicle id="585" depart="175.50">
        <route edges="E32 E36 E39 E48 gneE22 E53 E57"/>
    </vehicle>
    <vehicle id="587" depart="176.10">
        <route edges="E22 E24"/>
    </vehicle>
    <vehicle id="589" depart="176.70">
        <route edges="E8 E10 E12 E16 E18 E19 E21 E28 E31 E32 E36 E39 E48 gneE22 E53 E57"/>
    </vehicle>
    <vehicle id="591" depart="177.30">
        <route edges="E9 E2"/>
    </vehicle>
    <vehicle id="593" depart="177.90">
        <route edges="E29 E27 E20 E17 E15 E11 E9 E7"/>
    </vehicle>
    <vehicle id="595" depart="178.50">
        <route edges="E38 E37 E35 E30 E29 E27 E20 E17 E15 E11 E9"/>
    </vehicle>
    <vehicle id="597" depart="179.10">
        <route edges="E37 E35 E30 E29"/>
    </vehicle>
    <vehicle id="598" depart="179.40">
        <route edges="E8 E10 E12 E16 E18 E19 E21 E28 E31 E32 E36 E39 E48 gneE22"/>
    </vehicle>
    <vehicle id="606" depart="181.80">
        <route edges="E10"/>
    </vehicle>
    <vehicle id="610" depart="183.00">
        <route edges="E13 E11 E9 E7"/>
    </vehicle>
    <vehicle id="614" depart="184.20">
        <route edges="E49 E47 E38 E37 E35 E34"/>
    </vehicle>
    <vehicle id="616" depart="184.80">
        <route edges="E28 E31 E32 E36 E39 E45 E43"/>
    </vehicle>
    <vehicle id="619" depart="185.70">
        <route edges="E29 E27 E20 E17 E15 E11 E9 E2"/>
    </vehicle>
    <vehicle id="620" depart="186.00">
        <route edges="E40 E42 E45 E43"/>
    </vehicle>
    <vehicle id="621" depart="186.30">
        <route edges="E30 E29"/>
    </vehicle>
    <vehicle id="623" depart="186.90">
        <route edges="E27 E20 E17 E15"/>
    </vehicle>
    <vehicle id="624" depart="187.20">
        <route edges="E52 E50 E49 E47 E38 E37 E35 E30 E29 E27 E20 E17"/>
    </vehicle>
    <vehicle id="625" depart="187.50">
        <route edges="E21 E28 E31 E32 E34"/>
    </vehicle>
    <vehicle id="629" depart="188.70">
        <route edges="E26 E25 E28 E31 E32 E36 E39 E48 gneE22"/>
    </vehicle>
    <vehicle id="634" depart="190.20">
        <route edges="E26 E25"/>
    </vehicle>
    <vehicle id="640" depart="192.00">
        <route edges="E10 E12 E16 E18 E19 E21 E28 E31 E32 E36 E39 E48 gneE22"/>
    </vehicle>
    <vehicle id="641" depart="192.30">
        <route edges="E40 E42 E48 gneE22 E53 E55"/>
    </vehicle>
    <vehicle id="643" depart="192.90">
        <route edges="E54 E52 E50 E49 E47 E41"/>
    </vehicle>
    <vehicle id="652" depart="195.60">
        <route edges="E44 E46 E38 E37 E35 E30 E29 E27 E20 E17 E15 E11 E9 E6"/>
    </vehicle>
    <vehicle id="653" depart="195.90">
        <route edges="E22 E20 E17 E15 E11 E9 E2"/>
    </vehicle>
    <vehicle id="658" depart="197.40">
        <route edges="E8 E10 E12 E16 E18 E19 E21 E28 E31 E32"/>
    </vehicle>
    <vehicle id="659" depart="197.70">
        <route edges="E36 E39"/>
    </vehicle>
    <vehicle id="660" depart="198.00">
        <route edges="E40 E42 E38 E37 E35 E30 E29"/>
    </vehicle>
    <vehicle id="662" depart="198.60">
        <route edges="E50 E49 E47 E38 E37"/>
    </vehicle>
    <vehicle id="663" depart="198.90">
        <route edges="E19 E21 E28 E31 E32 E36 E39 E45"/>
    </vehicle>
    <vehicle id="664" depart="199.20">
        <route edges="E47 E38 E37 E35 E30 E29 E27 E20 E17"/>
    </vehicle>
    <vehicle id="666" depart="199.80">
        <route edges="E47 E38 E37 E35 E30 E29 E27 E20 E17 E15 E11 E9 E7"/>
    </vehicle>
    <vehicle id="674" depart="202.20">
        <route edges="E31 E32 E36 E39 E45"/>
    </vehicle>
    <vehicle id="676" depart="202.80">
        <route edges="E44 E46 E48"/>
    </vehicle>
    <vehicle id="679" depart="203.70">
        <route edges="E47 E38 E37 E35 E30 E29 E27 E20 E17 E15"/>
    </vehicle>
    <vehicle id="680" depart="204.00">
        <route edges="E22 E20 E17 E15 E11 E9 E2 E0"/>
    </vehicle>
    <vehicle id="685" depart="205.50">
        <route edges="E49 E47 E38 E37 E35 E30 E29 E27 E20 E17 E15 E11 E9 E7"/>
    </vehicle>
    <vehicle id="690" depart="207.00">
        <route edges="E16"/>
    </vehicle>
    <vehicle id="697" depart="209.10">
        <route edges="E12 E16 E18"/>
    </vehicle>
    <vehicle id="699" depart="209.70">
        <route edges="E32 E34"/>
    </vehicle>
    <vehicle id="701" depart="210.30">
        <route edges="E16 E18 E19 E21 E23"/>
    </vehicle>
    <vehicle id="703" depart="210.90">
        <route edges="E35 E30 E29 E27 E24"/>
    </vehicle>
    <vehicle id="705" depart="211.50">
        <route edges="E26 E25 E28"/>
    </vehicle>
    <vehicle id="707" depart="212.10">
        <route edges="E40 E42 E48 gneE22 E53 E57 E58"/>
    </vehicle>
    <vehicle id="708" depart="212.40">
        <route edges="E44 E46 E38 E37 E35 E30 E29 E27 E20 E17 E15 E14"/>
    </vehicle>
    <vehicle id="710" depart="213.00">
        <route edges="E44 E46 E48 gneE22 E53 E57"/>
    </vehicle>
    <vehicle id="713" depart="213.90">
        <route edges="E44 E46 E41"/>
    </vehicle>
    <vehicle id="716" depart="214.80">
        <route edges="E39 E48 gneE22"/>
    </vehicle>
    <vehicle id="717" depart="215.10">
        <route edges="E54 E52 E50 E49 E47 E38 E37 E35 E30 E29 E27 E20 E17 E15 E11 E9"/>
    </vehicle>
    <vehicle id="718" depart="215.40">
        <route edges="E49 E47"/>
    </vehicle>
    <vehicle id="719" depart="215.70">
        <route edges="E40 E42 E48 gneE22 E53 E55"/>
    </vehicle>
    <vehicle id="720" depart="216.00">
        <route edges="E40 E42 E48 gneE22 E53 E57 E58"/>
    </vehicle>
    <vehicle id="726" depart="217.80">
        <route edges="E4 E10 E12 E16 E18 E19 E21 E28 E31 E32 E36"/>
    </vehicle>
    <vehicle id="727" depart="218.10">
        <route edges="E16 E18 E19 E21 E28 E31 E32 E36 E39 E48 gneE22 E53 E57"/>
    </vehicle>
    <vehicle id="735" depart="220.50">
        <route edges="E32 E36 E39 E45"/>
    </vehicle>
    <vehicle id="739" depart="221.70">
        <route edges="E50 E49 E47 E38 E37 E35 E30 E29 E27 E24"/>
    </vehicle>
    <vehicle id="740" depart="222.00">
        <route edges="E37"/>
    </vehicle>
    <vehicle id="748" depart="224.40">
        <route edges="E1 E4 E10 E12 E16 E18 E19 E21 E28 E31 E32 E36 E39 E45"/>
    </vehicle>
    <vehicle id="749" depart="224.70">
        <route edges="E32 E36 E39 E45"/>
    </vehicle>
    <vehicle id="751" depart="225.30">
        <route edges="E54 E57"/>
    </vehicle>
    <vehicle id="753" depart="225.90">
        <route edges="E36 E39 E48"/>
    </vehicle>
    <vehicle id="755" depart="226.50">
        <route edges="E36 E39 E48 gneE22"/>
    </vehicle>
    <vehicle id="759" depart="227.70">
        <route edges="E31 E32 E36 E39 E48 gneE22 E53"/>
    </vehicle>
    <vehicle id="760" depart="228.00">
        <route edges="E12 E16 E18 E19 E21"/>
    </vehicle>
    <vehicle id="764" depart="229.20">
        <route edges="E49 E47 E38 E37 E35 E30 E29 E27 E20 E17 E15"/>
    </vehicle>
    <vehicle id="766" depart="229.80">
        <route edges="E25 E20 E17 E15 E11 E9 E6"/>
    </vehicle>
    <vehicle id="769" depart="230.70">
        <route edges="E49 E47 E38 E37 E35 E30 E29"/>
    </vehicle>
    <vehicle id="770" depart="231.00">
        <route edges="E26 E25 E20 E17 E15 E11 E9 E6"/>
    </vehicle>
    <vehicle id="774" depart="232.20">
        <route edges="E18 E19 E21 E28 E31 E32 E36 E39 E48 gneE22 E53"/>
    </vehicle>
    <vehicle id="775" depart="232.50">
        <route edges="E46 E38 E37"/>
    </vehicle>
    <vehicle id="776" depart="232.80">
        <route edges="E26 E25 E20 E17 E15 E11 E9 E2 E0"/>
    </vehicle>
    <vehicle id="781" depart="234.30">
        <route edges="E12 E16 E18"/>
    </vehicle>
    <vehicle id="784" depart="235.20">
        <route edges="E22 E28"/>
    </vehicle>
    <vehicle id="785" depart="235.50">
        <route edges="E20 E17 E15 E11 E9 E2 E0"/>
    </vehicle>
    <vehicle id="787" depart="236.10">
        <route edges="E32 E36 E39 E48 gneE22 E53 E57 E58"/>
    </vehicle>
    <vehicle id="789" depart="236.70">
        <route edges="E11 E9"/>
    </vehicle>
    <vehicle id="793" depart="237.90">
        <route edges="E13 E16 E18 E19"/>
    </vehicle>
    <vehicle id="795" depart="238.50">
        <route edges="E1 E4 E6"/>
    </vehicle>
    <vehicle id="797" depart="239.10">
        <route edges="E44 E46 E38 E37 E35"/>
    </vehicle>
    <vehicle id="800" depart="240.00">
        <route edges="E4 E10 E12 E16 E18 E19 E21 E28 E31 E32 E36 E39 E48 gneE22"/>
    </vehicle>
    <vehicle id="801" depart="240.30">
        <route edges="E12 E16 E18 E19"/>
    </vehicle>
    <vehicle id="802" depart="240.60">
        <route edges="E54 E52 E50 E49 E47"/>
    </vehicle>