<?xml version="1.0" encoding="UTF-8"?>

<!-- generated on 2021-09-29 19:48:03 by Eclipse SUMO duarouter Version 1.9.2
<configuration xmlns:xsi="http://www.w3.org/2001/XMLSchema-instance" xsi:noNamespaceSchemaLocation="http://sumo.dlr.de/xsd/duarouterConfiguration.xsd">

    <input>
        <net-file value="/home/sonic/Desktop/nets/case06/intersection.net.xml"/>
        <route-files value="trips.trips.xml"/>
    </input>

    <output>
        <output-file value="intersection_random5.rou.xml"/>
        <alternatives-output value="intersection_random5.rou.alt.xml"/>
    </output>

    <time>
        <begin value="0"/>
        <end value="18000.0"/>
    </time>

    <report>
        <no-warnings value="true"/>
        <ignore-errors value="true"/>
        <no-step-log value="true"/>
    </report>

</configuration>
-->

<routes xmlns:xsi="http://www.w3.org/2001/XMLSchema-instance" xsi:noNamespaceSchemaLocation="http://sumo.dlr.de/xsd/routes_file.xsd">
    <vehicle id="1" depart="0.40">
        <route edges="E17 E15 E11 E9 E2"/>
    </vehicle>
    <vehicle id="5" depart="2.00">
        <route edges="E49 E47 E41"/>
    </vehicle>
    <vehicle id="6" depart="2.40">
        <route edges="E20 E17 E15 E11 E9 E2"/>
    </vehicle>
    <vehicle id="16" depart="6.40">
        <route edges="E46 E38 E37 E35 E30 E29 E27 E20 E17 E15 E11 E9 E6"/>
    </vehicle>
    <vehicle id="17" depart="6.80">
        <route edges="E29"/>
    </vehicle>
    <vehicle id="21" depart="8.40">
        <route edges="E10 E12 E16 E18 E19 E21 E28 E31 E32 E36 E39 E41"/>
    </vehicle>
    <vehicle id="22" depart="8.80">
        <route edges="E54 E52 E50 E49 E47 E38 E37 E35 E30 E29 E27 E20 E17 E15"/>
    </vehicle>
    <vehicle id="26" depart="10.40">
        <route edges="E31 E32 E34"/>
    </vehicle>
    <vehicle id="28" depart="11.20">
        <route edges="E40 E42 E38 E37 E35 E30 E29 E27 E20 E17 E15 E11 E9 E6"/>
    </vehicle>
    <vehicle id="30" depart="12.00">
        <route edges="E49 E47 E38 E37 E35 E34"/>
    </vehicle>
    <vehicle id="31" depart="12.40">
        <route edges="E19"/>
    </vehicle>
    <vehicle id="33" depart="13.20">
        <route edges="E4 E10 E12 E16 E18 E19 E21 E28 E31 E32 E34"/>
    </vehicle>
    <vehicle id="41" depart="16.40">
        <route edges="E18 E19 E21 E28 E31"/>
    </vehicle>
    <vehicle id="44" depart="17.60">
        <route edges="E52 E50 E49 E47 E38 E37 E35 E30 E29 E27"/>
    </vehicle>
    <vehicle id="46" depart="18.40">
        <route edges="E22 E28 E31 E32 E36 E39 E48 gneE22 E53 E55"/>
    </vehicle>
    <vehicle id="50" depart="20.00">
        <route edges="E47 E38 E37 E35 E30 E29 E27 E20 E17 E15 E11 E9 E7"/>
    </vehicle>
    <vehicle id="52" depart="20.80">
        <route edges="E9 E6"/>
    </vehicle>
    <vehicle id="58" depart="23.20">
        <route edges="E16 E18 E19 E21 E28 E31 E32 E36 E39 E48 gneE22 E53 E57 E58"/>
    </vehicle>
    <vehicle id="59" depart="23.60">
        <route edges="E49 E47 E38 E37 E35 E30 E29"/>
    </vehicle>
    <vehicle id="60" depart="24.00">
        <route edges="E54 E52 E50 E49 E47 E38 E37 E35 E34"/>
    </vehicle>
    <vehicle id="61" depart="24.40">
        <route edges="E13 E16 E18 E19 E21 E28 E31 E32 E36 E39 E41"/>
    </vehicle>
    <vehicle id="62" depart="24.80">
        <route edges="E19 E21 E28 E31 E32 E36 E39 E48 gneE22"/>
    </vehicle>
    <vehicle id="65" depart="26.00">
        <route edges="E17 E15 E11 E9"/>
    </vehicle>
    <vehicle id="67" depart="26.80">
        <route edges="E50 E49 E47 E38 E37 E35 E30 E29 E27 E20 E17 E15 E11 E9 E2"/>
    </vehicle>
    <vehicle id="70" depart="28.00">
        <route edges="E25 E20 E17 E15 E11 E9 E6"/>
    </vehicle>
    <vehicle id="74" depart="29.60">
        <route edges="E27 E20"/>
    </vehicle>
    <vehicle id="76" depart="30.40">
        <route edges="E53 E55"/>
    </vehicle>
    <vehicle id="78" depart="31.20">
        <route edges="E18 E19"/>
    </vehicle>
    <vehicle id="79" depart="31.60">
        <route edges="E27 E20 E17 E15 E11 E9 E2"/>
    </vehicle>
    <vehicle id="81" depart="32.40">
        <route edges="E46 E41"/>
    </vehicle>
    <vehicle id="82" depart="32.80">
        <route edges="E27 E20 E17 E15 E14"/>
    </vehicle>
    <vehicle id="83" depart="33.20">
        <route edges="E49 E47 E38 E37 E35 E30 E29 E27 E20"/>
    </vehicle>
    <vehicle id="84" depart="33.60">
        <route edges="E52"/>
    </vehicle>
    <vehicle id="87" depart="34.80">
        <route edges="E56 E52 E50 E49 E47 E38 E37 E35 E30 E29 E27 E20 E17 E15 E14"/>
    </vehicle>
    <vehicle id="90" depart="36.00">
        <route edges="E25 E28 E31 E32 E36 E39 E41"/>
    </vehicle>
    <vehicle id="94" depart="37.60">
        <route edges="E47 E38 E37 E35 E30 E29 E27 E24"/>
    </vehicle>
    <vehicle id="96" depart="38.40">
        <route edges="E4 E10 E12 E16 E18 E19 E21 E28 E31 E32 E34"/>
    </vehicle>
    <vehicle id="97" depart="38.80">
        <route edges="E25 E20"/>
    </vehicle>
    <vehicle id="102" depart="40.80">
        <route edges="E21 E28 E31 E32 E36 E39 E48 gneE22"/>
    </vehicle>
    <vehicle id="103" depart="41.20">
        <route edges="E4 E10 E12 E14"/>
    </vehicle>
    <vehicle id="104" depart="41.60">
        <route edges="E46 E38 E37 E35 E30"/>
    </vehicle>
    <vehicle id="105" depart="42.00">
        <route edges="E5 E10 E12 E16 E18 E19 E21 E28 E31 E32 E36 E39 E48 gneE22"/>
    </vehicle>
    <vehicle id="109" depart="43.60">
        <route edges="E52 E50 E49 E47 E38 E37 E35 E30 E29 E27 E20 E17 E15 E11 E9"/>
    </vehicle>
    <vehicle id="112" depart="44.80">
        <route edges="E18"/>
    </vehicle>
    <vehicle id="113" depart="45.20">
        <route edges="E40 E42 E38 E37 E35 E30 E29 E27 E20 E17"/>
    </vehicle>
    <vehicle id="117" depart="46.80">
        <route edges="E46 E48 gneE22 E53"/>
    </vehicle>
    <vehicle id="126" depart="50.40">
        <route edges="E22 E28 E31 E32 E36 E39 E45 E43"/>
    </vehicle>
    <vehicle id="133" depart="53.20">
        <route edges="E56 E52 E50 E49 E47 E38 E37 E35 E30 E29 E27 E20 E17 E15 E11 E9 E6"/>
    </vehicle>
    <vehicle id="138" depart="55.20">
        <route edges="E46 E38 E37 E35 E30 E29 E27 E20 E17 E15 E11"/>
    </vehicle>
    <vehicle id="139" depart="55.60">
        <route edges="E52 E50 E49 E47 E38 E37"/>
    </vehicle>
    <vehicle id="143" depart="57.20">
        <route edges="E12 E16 E18 E19 E21 E28 E31"/>
    </vehicle>
    <vehicle id="144" depart="57.60">
        <route edges="E18"/>
    </vehicle>
    <vehicle id="145" depart="58.00">
        <route edges="E28 E31 E32 E36 E39 E48"/>
    </vehicle>
    <vehicle id="151" depart="60.40">
        <route edges="E19 E21 E28 E31 E32 E36"/>
    </vehicle>
    <vehicle id="153" depart="61.20">
        <route edges="E42 E45"/>
    </vehicle>
    <vehicle id="159" depart="63.60">
        <route edges="E1 E4 E10 E12 E16 E18 E19 E21 E23"/>
    </vehicle>
    <vehicle id="168" depart="67.20">
        <route edges="E40 E42 E48 gneE22 E53 E57"/>
    </vehicle>
    <vehicle id="169" depart="67.60">
        <route edges="E49 E47 E38 E37 E35 E30 E29 E27 E24"/>
    </vehicle>
    <vehicle id="172" depart="68.80">
        <route edges="E20 E17 E15 E11 E9 E7"/>
    </vehicle>
    <vehicle id="175" depart="70.00">
        <route edges="E46 E38 E37 E35 E30 E29 E27 E20 E17 E15 E11"/>
    </vehicle>
    <vehicle id="176" depart="70.40">
        <route edges="E30"/>
    </vehicle>
    <vehicle id="179" depart="71.60">
        <route edges="E42 E38 E37 E35 E30"/>
    </vehicle>
    <vehicle id="180" depart="72.00">
        <route edges="E13 E11 E9"/>
    </vehicle>
    <vehicle id="181" depart="72.40">
        <route edges="E56 E52 E50 E49 E47 E38 E37 E35 E30 E29 E27 E20 E17 E15 E11 E9 E7"/>
    </vehicle>
    <vehicle id="183" depart="73.20">
        <route edges="E35 E30"/>
    </vehicle>
    <vehicle id="185" depart="74.00">
        <route edges="E38 E37 E35 E30 E29 E27 E20 E17 E15 E11 E9"/>
    </vehicle>
    <vehicle id="186" depart="74.40">
        <route edges="E52 E50 E49 E47 E45"/>
    </vehicle>
    <vehicle id="188" depart="75.20">
        <route edges="E21 E28 E31"/>
    </vehicle>
    <vehicle id="190" depart="76.00">
        <route edges="E9 E6"/>
    </vehicle>
    <vehicle id="192" depart="76.80">
        <route edges="E1 E4 E10 E12 E16 E18 E19 E21 E28 E31 E32 E36 E39 E48 gneE22 E53 E55"/>
    </vehicle>
    <vehicle id="195" depart="78.00">
        <route edges="E44 E46 E38 E37 E35 E30 E29 E27 E20 E17"/>
    </vehicle>
    <vehicle id="196" depart="78.40">
        <route edges="E37 E35 E30 E29 E27 E20 E17 E15 E14"/>
    </vehicle>
    <vehicle id="199" depart="79.60">
        <route edges="E50 E49 E47 E45"/>
    </vehicle>
    <vehicle id="200" depart="80.00">
        <route edges="E13 E16 E18 E19 E21 E28 E31 E32 E36 E39 E48 gneE22 E53"/>
    </vehicle>
    <vehicle id="201" depart="80.40">
        <route edges="E12 E16"/>
    </vehicle>
    <vehicle id="203" depart="81.20">
        <route edges="E40 E42 E48 gneE22 E53"/>
    </vehicle>
    <vehicle id="205" depart="82.00">
        <route edges="E46 E38 E37 E35"/>
    </vehicle>
    <vehicle id="208" depart="83.20">
        <route edges="E28 E31 E32 E36 E39 E48 gneE22 E53 E55"/>
    </vehicle>
    <vehicle id="209" depart="83.60">
        <route edges="E17 E15 E11"/>
    </vehicle>
    <vehicle id="210" depart="84.00">
        <route edges="E39"/>
    </vehicle>
    <vehicle id="218" depart="87.20">
        <route edges="E4 E10 E12 E16 E18 E19 E21 E28 E31 E32"/>
    </vehicle>
    <vehicle id="219" depart="87.60">
        <route edges="E52 E50 E49 E47 E41"/>
    </vehicle>
    <vehicle id="220" depart="88.00">
        <route edges="E35 E30 E29 E27 E20 E17 E15 E11 E9 E7"/>
    </vehicle>
    <vehicle id="223" depart="89.20">
        <route edges="E39 E41"/>
    </vehicle>
    <vehicle id="225" depart="90.00">
        <route edges="E26 E25 E20 E17 E15 E11 E9 E7"/>
    </vehicle>
    <vehicle id="226" depart="90.40">
        <route edges="E26 E25 E20 E17 E15 E11 E9"/>
    </vehicle>
    <vehicle id="228" depart="91.20">
        <route edges="E33 E30 E29 E27 E20 E17 E15"/>
    </vehicle>
    <vehicle id="229" depart="91.60">
        <route edges="E49 E47 E38 E37 E35 E30 E29 E27 E20 E17 E15 E11"/>
    </vehicle>
    <vehicle id="231" depart="92.40">
        <route edges="E49 E47 E38 E37 E35 E30 E29 E27 E20 E17 E15 E11"/>
    </vehicle>
    <vehicle id="233" depart="93.20">
        <route edges="E56 E52 E50 E49 E47 E45"/>
    </vehicle>
    <vehicle id="244" depart="97.60">
        <route edges="E16 E18 E19 E21 E28 E31 E32 E36 E39 E48 gneE22 E53"/>
    </vehicle>
    <vehicle id="246" depart="98.40">
        <route edges="E31 E32 E36 E39 E48 gneE22 E53 E57 E58"/>
    </vehicle>
    <vehicle id="250" depart="100.00">
        <route edges="E44 E46 E38 E37 E35 E30 E29 E27 E20 E17"/>
    </vehicle>
    <vehicle id="252" depart="100.80">
        <route edges="E56 E52 E50 E49 E47 E38 E37 E35 E30 E29 E27 E20 E17 E15 E11 E9 E7"/>
    </vehicle>
    <vehicle id="253" depart="101.20">
        <route edges="E35 E30 E29 E27 E20"/>
    </vehicle>
    <vehicle id="256" depart="102.40">
        <route edges="E49 E47 E38 E37 E35 E30 E29 E27 E20 E17 E15 E11 E9"/>
    </vehicle>
    <vehicle id="259" depart="103.60">
        <route edges="E21 E28 E31 E32 E34"/>
    </vehicle>
    <vehicle id="263" depart="105.20">
        <route edges="E4 E10 E12 E16"/>
    </vehicle>
    <vehicle id="267" depart="106.80">
        <route edges="E13 E16 E18 E19 E21 E28 E31 E32 E36 E39 E48 gneE22 E53 E57"/>
    </vehicle>
    <vehicle id="268" depart="107.20">
        <route edges="E5 E10"/>
    </vehicle>
    <vehicle id="269" depart="107.60">
        <route edges="E46 E38"/>
    </vehicle>
    <vehicle id="270" depart="108.00">
        <route edges="E47 E38 E37 E35 E30 E29 E27 E20 E17 E15 E11 E9 E6"/>
    </vehicle>
    <vehicle id="272" depart="108.80">
        <route edges="E33 E30 E29 E27 E20 E17 E15 E14"/>
    </vehicle>
    <vehicle id="273" depart="109.20">
        <route edges="E16 E18 E19 E21 E28 E31 E32 E36 E39 E45"/>
    </vehicle>
    <vehicle id="275" depart="110.00">
        <route edges="E40 E42 E38 E37 E35 E30 E29 E27 E20"/>
    </vehicle>
    <vehicle id="279" depart="111.60">
        <route edges="E46 E48 gneE22 E53 E55"/>
    </vehicle>
    <vehicle id="282" depart="112.80">
        <route edges="E16 E18 E19 E21 E28 E31 E32"/>
    </vehicle>
    <vehicle id="285" depart="114.00">
        <route edges="E15 E11 E9 E2 E0"/>
    </vehicle>
    <vehicle id="286" depart="114.40">
        <route edges="E28"/>
    </vehicle>
    <vehicle id="287" depart="114.80">
        <route edges="E8 E2 E0"/>
    </vehicle>
    <vehicle id="291" depart="116.40">
        <route edges="E40 E42 E38 E37 E35 E30 E29 E27 E20 E17 E15 E11 E9 E2 E0"/>
    </vehicle>
    <vehicle id="298" depart="119.20">
        <route edges="E15 E11 E9"/>
    </vehicle>
    <vehicle id="302" depart="120.80">
        <route edges="E46 E38 E37 E35 E30 E29 E27 E20 E17"/>
    </vehicle>
    <vehicle id="303" depart="121.20">
        <route edges="E44 E46 E38 E37 E35 E30 E29 E27"/>
    </vehicle>
    <vehicle id="304" depart="121.60">
        <route edges="E10 E12 E16 E18 E19 E21 E28 E31 E32 E36 E39 E41"/>
    </vehicle>
    <vehicle id="305" depart="122.00">
        <route edges="E1 E4 E10 E12 E16 E18 E19 E21 E28 E31"/>
    </vehicle>
    <vehicle id="307" depart="122.80">
        <route edges="E12 E16 E18 E19 E21 E28 E31 E32 E36 E39 E48 gneE22 E53 E57"/>
    </vehicle>
    <vehicle id="309" depart="123.60">
        <route edges="E18 E19 E21 E28 E31 E32 E36 E39 E48 gneE22 E53"/>
    </vehicle>
    <vehicle id="317" depart="126.80">
        <route edges="E26 E25 E20 E17 E15 E11 E9 E6"/>
    </vehicle>
    <vehicle id="324" depart="129.60">
        <route edges="E42 E38 E37 E35 E30 E29"/>
    </vehicle>
    <vehicle id="327" depart="130.80">
        <route edges="E44 E46 E48 gneE22 E53 E57"/>
    </vehicle>
    <vehicle id="332" depart="132.80">
        <route edges="E16 E18 E19 E21 E28 E31 E32 E36 E39 E41"/>
    </vehicle>
    <vehicle id="339" depart="135.60">
        <route edges="E32 E36 E39 E48"/>
    </vehicle>
    <vehicle id="343" depart="137.20">
        <route edges="E49 E47 E38 E37 E35 E30 E29 E27 E20"/>
    </vehicle>
    <vehicle id="345" depart="138.00">
        <route edges="E49 E47 E38"/>
    </vehicle>
    <vehicle id="349" depart="139.60">
        <route edges="E54 E52 E50 E49 E47 E38 E37 E35 E30 E29 E27 E20 E17 E15 E14"/>
    </vehicle>
    <vehicle id="350" depart="140.00">
        <route edges="E5 E10 E12 E16"/>
    </vehicle>
    <vehicle id="354" depart="141.60">
        <route edges="E42 E45"/>
    </vehicle>
    <vehicle id="357" depart="142.80">
        <route edges="E26 E25 E20 E17 E15 E11 E9"/>
    </vehicle>
    <vehicle id="359" depart="143.60">
        <route edges="E27 E20 E17 E15 E14"/>
    </vehicle>
    <vehicle id="360" depart="144.00">
        <route edges="E44 E46 E38 E37 E35 E30"/>
    </vehicle>
    <vehicle id="361" depart="144.40">
        <route edges="E16 E18 E19 E21 E28 E31 E32 E36"/>
    </vehicle>
    <vehicle id="363" depart="145.20">
        <route edges="E46 E48 gneE22"/>
    </vehicle>
    <vehicle id="366" depart="146.40">
        <route edges="E44 E46 E41"/>
    </vehicle>
    <vehicle id="368" depart="147.20">
        <route edges="E29 E27"/>
    </vehicle>
    <vehicle id="370" depart="148.00">
        <route edges="E38 E37 E35 E30 E29 E27 E20 E17 E15 E11 E9"/>
    </vehicle>
    <vehicle id="371" depart="148.40">
        <route edges="E46 E38 E37"/>
    </vehicle>
    <vehicle id="375" depart="150.00">
        <route edges="E13 E11 E9 E7"/>
    </vehicle>
    <vehicle id="378" depart="151.20">
        <route edges="E26 E25 E28 E31 E32 E36"/>
    </vehicle>
    <vehicle id="380" depart="152.00">
        <route edges="E5 E10 E12 E16"/>
    </vehicle>
    <vehicle id="383" depart="153.20">
        <route edges="E40 E42 E38 E37 E35 E30 E29 E27 E20 E17 E15 E11 E9 E6"/>
    </vehicle>
    <vehicle id="384" depart="153.60">
        <route edges="E29 E27"/>
    </vehicle>
    <vehicle id="388" depart="155.20">
        <route edges="E5 E10 E12 E16 E18 E19 E21 E28 E31 E32 E36 E39 E48 gneE22 E53 E57"/>
    </vehicle>
    <vehicle id="390" depart="156.00">
        <route edges="E10"/>
    </vehicle>
    <vehicle id="393" depart="157.20">
        <route edges="E50 E49 E47 E38 E37 E35 E30 E29 E27 E20 E17 E15 E14"/>
    </vehicle>
    <vehicle id="399" depart="159.60">
        <route edges="E33 E30 E29 E27 E20 E17 E15 E11 E9"/>
    </vehicle>
    <vehicle id="402" depart="160.80">
        <route edges="E27 E20 E17 E15 E11 E9"/>
    </vehicle>
    <vehicle id="404" depart="161.60">
        <route edges="E18 E19 E21 E28 E31 E32 E36 E39 E41"/>
    </vehicle>
    <vehicle id="406" depart="162.40">
        <route edges="E29 E27 E20 E17 E15"/>
    </vehicle>
    <vehicle id="408" depart="163.20">
        <route edges="E4 E10 E12 E16 E18 E19 E21 E28 E31 E32 E36"/>
    </vehicle>
    <vehicle id="415" depart="166.00">
        <route edges="E38 E37 E35 E30"/>
    </vehicle>
    <vehicle id="416" depart="166.40">
        <route edges="E52 E50"/>
    </vehicle>
    <vehicle id="417" depart="166.80">
        <route edges="E21 E28"/>
    </vehicle>
    <vehicle id="419" depart="167.60">
        <route edges="E17 E15 E11 E9"/>
    </vehicle>
    <vehicle id="422" depart="168.80">
        <route edges="E56 E52 E50 E49"/>
    </vehicle>
    <vehicle id="426" depart="170.40">
        <route edges="E5 E10 E12 E16 E18 E19 E21 E28 E31 E32 E36 E39 E48 gneE22 E53 E55"/>
    </vehicle>
    <vehicle id="427" depart="170.80">
        <route edges="E38 E37 E35 E30 E29 E27 E20 E17 E15 E11 E9 E2 E0"/>
    </vehicle>
    <vehicle id="430" depart="172.00">
        <route edges="E13 E16 E18 E19 E21 E28"/>
    </vehicle>
    <vehicle id="432" depart="172.80">
        <route edges="E25 E20 E17 E15"/>
    </vehicle>
    <vehicle id="433" depart="173.20">
        <route edges="E27 E20 E17 E15 E11 E9 E7"/>
    </vehicle>
    <vehicle id="434" depart="173.60">
        <route edges="E5 E2 E0"/>
    </vehicle>
    <vehicle id="439" depart="175.60">
        <route edges="E47 E38"/>
    </vehicle>
    <vehicle id="440" depart="176.00">
        <route edges="E25 E20 E17 E15"/>
    </vehicle>
    <vehicle id="442" depart="176.80">
        <route edges="E4 E10 E12 E16 E18 E19 E21 E28 E31 E32 E36 E39 E41"/>
    </vehicle>
    <vehicle id="444" depart="177.60">
        <route edges="E44 E46 E48 gneE22 E53 E57"/>
    </vehicle>
    <vehicle id="446" depart="178.40">
        <route edges="E54 E52 E50 E49 E47 E38 E37 E35 E30 E29 E27 E20 E17 E15 E11 E9 E7"/>
    </vehicle>
    <vehicle id="447" depart="178.80">
        <route edges="E50 E49 E47 E45"/>
    </vehicle>
    <vehicle id="455" depart="182.00">
        <route edges="E25 E28 E31 E32"/>
    </vehicle>
    <vehicle id="456" depart="182.40">
        <route edges="E13 E16 E18 E19 E21 E28 E31 E32 E36 E39 E48"/>
    </vehicle>
    <vehicle id="460" depart="184.00">
        <route edges="E44 E46 E38 E37 E35 E30 E29 E27 E24"/>
    </vehicle>
    <vehicle id="465" depart="186.00">
        <route edges="E46 E48 gneE22 E53 E57"/>
    </vehicle>
    <vehicle id="473" depart="189.20">
        <route edges="E13 E11 E9 E2"/>
    </vehicle>
    <vehicle id="474" depart="189.60">
        <route edges="E49 E47 E38"/>
    </vehicle>
    <vehicle id="477" depart="190.80">
        <route edges="E35 E30 E29 E27 E20 E17 E15"/>
    </vehicle>
    <vehicle id="478" depart="191.20">
        <route edges="E16 E18 E19"/>
    </vehicle>
    <vehicle id="479" depart="191.60">
        <route edges="E52 E50 E49 E47 E38 E37 E35 E30 E29 E27 E20 E17 E15 E14"/>
    </vehicle>
    <vehicle id="482" depart="192.80">
        <route edges="E13 E16 E18 E19"/>
    </vehicle>
    <vehicle id="483" depart="193.20">
        <route edges="E50 E49"/>
    </vehicle>
    <vehicle id="484" depart="193.60">
        <route edges="E17 E15 E11 E9 E2 E0"/>
    </vehicle>
    <vehicle id="485" depart="194.00">
        <route edges="E46 E38 E37 E35 E30 E29 E27 E20 E17 E15 E11 E9 E2"/>
    </vehicle>
    <vehicle id="488" depart="195.20">
        <route edges="E5 E10 E12 E16 E18 E19 E21 E28 E31 E32 E36 E39"/>
    </vehicle>
    <vehicle id="489" depart="195.60">
        <route edges="E22 E28 E31 E32 E36 E39 E48 gneE22"/>
    </vehicle>
    <vehicle id="491" depart="196.40">
        <route edges="E1 E4 E10 E12 E16 E18 E19 E21 E28 E31 E32 E36 E39 E48 gneE22 E53 E55"/>
    </vehicle>
    <vehicle id="493" depart="197.20">
        <route edges="E30 E29 E27 E24"/>
    </vehicle>
    <vehicle id="496" depart="198.40">
        <route edges="E56 E52 E50 E49 E47 E38 E37 E35 E30 E29 E27 E20 E17 E15 E11 E9"/>
    </vehicle>
    <vehicle id="501" depart="200.40">
        <route edges="E25 E28 E31 E32 E36 E39 E48 gneE22 E53"/>
    </vehicle>
    <vehicle id="502" depart="200.80">
        <route edges="E12 E16 E18 E19 E21 E28 E31 E32 E34"/>
    </vehicle>
    <vehicle id="503" depart="201.20">
        <route edges="E18 E19"/>
    </vehicle>
    <vehicle id="505" depart="202.00">
        <route edges="E40 E42 E38 E37 E35 E30 E29 E27 E20 E17 E15"/>
    </vehicle>
    <vehicle id="506" depart="202.40">
        <route edges="E10 E12 E16 E18 E19 E21 E28 E31 E32 E34"/>
    </vehicle>
    <vehicle id="507" depart="202.80">
        <route edges="E44 E46 E38 E37 E35 E30 E29"/>
    </vehicle>
    <vehicle id="508" depart="203.20">
        <route edges="E40 E42 E38 E37 E35 E30 E29"/>
    </vehicle>
    <vehicle id="511" depart="204.40">
        <route edges="E28 E31 E32 E36 E39 E48 gneE22 E53 E57 E58"/>
    </vehicle>
    <vehicle id="513" depart="205.20">
        <route edges="E11 E9 E7"/>
    </vehicle>
    <vehicle id="518" depart="207.20">
        <route edges="E44 E46"/>
    </vehicle>
    <vehicle id="519" depart="207.60">
        <route edges="E31 E32"/>
    </vehicle>
    <vehicle id="524" depart="209.60">
        <route edges="E25 E28 E31 E32 E36 E39 E48"/>
    </vehicle>
    <vehicle id="526" depart="210.40">
        <route edges="E46 E38 E37 E35 E34"/>
    </vehicle>
    <vehicle id="531" depart="212.40">
        <route edges="E25 E28 E31 E32 E36 E39"/>
    </vehicle>
    <vehicle id="534" depart="213.60">
        <route edges="E5 E10 E12 E16 E18 E19 E21 E28 E31"/>
    </vehicle>
    <vehicle id="541" depart="216.40">
        <route edges="E10 E12 E16 E18 E19 E21 E28 E31 E32"/>
    </vehicle>
    <vehicle id="544" depart="217.60">
        <route edges="E26 E25 E28 E31 E32 E36 E39 E45 E43"/>
    </vehicle>
    <vehicle id="545" depart="218.00">
        <route edges="E16 E18 E19 E21 E28 E31 E32 E36 E39 E48 gneE22 E53"/>
    </vehicle>
    <vehicle id="548" depart="219.20">
        <route edges="E38 E37 E35"/>
    </vehicle>
    <vehicle id="552" depart="220.80">
        <route edges="E39 E48 gneE22 E53 E57"/>
    </vehicle>
    <vehicle id="559" depart="223.60">
        <route edges="E5 E10 E12 E14"/>
    </vehicle>
    <vehicle id="561" depart="224.40">
        <route edges="E1 E4 E10 E12 E16 E18 E19 E21"/>
    </vehicle>
    <vehicle id="565" depart="226.00">
        <route edges="E4 E10 E12 E16"/>
    </vehicle>
    <vehicle id="567" depart="226.80">
        <route edges="E44 E46 E38 E37 E35 E30 E29 E27 E20 E17 E15 E11 E9 E7"/>
    </vehicle>
    <vehicle id="568" depart="227.20">
        <route edges="E22 E28 E31 E32 E36 E39 E48"/>
    </vehicle>
    <vehicle id="569" depart="227.60">
        <route edges="E36 E39 E48 gneE22 E53 E57 E58"/>
    </vehicle>
    <vehicle id="572" depart="228.80">
        <route edges="E40 E42 E45"/>
    </vehicle>
    <vehicle id="573" depart="229.20">
        <route edges="E4 E10 E12 E16 E18 E19 E21 E28 E31 E32 E36 E39 E48 gneE22 E53"/>
    </vehicle>
    <vehicle id="574" depart="229.60">
        <route edges="E31"/>
    </vehicle>
    <vehicle id="576" depart="230.40">
        <route edges="E15 E11 E9 E7"/>
    </vehicle>
    <vehicle id="577" depart="230.80">
        <route edges="E17 E15 E11 E9 E2"/>
    </vehicle>
    <vehicle id="578" depart="231.20">
        <route edges="E46 E38 E37 E35 E30 E29 E27 E20 E17 E15 E11 E9 E6"/>
    </vehicle>
    <vehicle id="579" depart="231.60">
        <route edges="E42 E45 E43"/>
    </vehicle>
    <vehicle id="584" depart="233.60">
        <route edges="E18 E19 E21 E28 E31 E32 E36 E39 E45 E43"/>
    </vehicle>
    <vehicle id="585" depart="234.00">
        <route edges="E13 E16 E18 E19 E21 E28 E31 E32 E36"/>
    </vehicle>
    <vehicle id="589" depart="235.60">
        <route edges="E38 E37 E35 E30 E29 E27 E20 E17 E15 E11 E9 E2 E0"/>
    </vehicle>
    <vehicle id="591" depart="236.40">
        <route edges="E5 E10 E12 E16 E18 E19 E21 E28 E31 E32"/>
    </vehicle>
    <vehicle id="592" depart="236.80">
        <route edges="E13 E16 E18 E19 E21 E28 E31"/>
    </vehicle>
    <vehicle id="595" depart="238.00">
        <route edges="E9 E7"/>
    </vehicle>
    <vehicle id="597" depart="238.80">
        <route edges="E1 E4 E10 E12 E16 E18 E19 E21 E28 E31 E32 E36 E39 E45 E43"/>
    </vehicle>
    <vehicle id="600" depart="240.00">
        <route edges="E13 E16 E18 E19 E21 E28 E31"/>
    </vehicle>
    <vehicle id="601" depart="240.40">
        <route edges="E18 E19 E21 E23"/>
    </vehicle>
    <vehicle id="608" depart="243.20">
        <route edges="E37 E35 E30 E29 E27 E20 E17 E15 E11 E9 E2"/>
    </vehicle>
    <vehicle id="610" depart="244.00">
        <route edges="E26 E25 E20 E17"/>
    </vehicle>
    <vehicle id="615" depart="246.00">
        <route edges="E4 E10 E12 E16 E18 E19 E21 E28 E31 E32 E36 E39 E48 gneE22 E53 E57"/>
    </vehicle>
    <vehicle id="619" depart="247.60">
        <route edges="E26 E25 E20"/>
    </vehicle>
    <vehicle id="621" depart="248.40">
        <route edges="E33 E36 E39 E45"/>
    </vehicle>
    <vehicle id="623" depart="249.20">
        <route edges="gneE22"/>
    </vehicle>
    <vehicle id="625" depart="250.00">
        <route edges="E26 E25 E20 E17 E15 E14"/>
    </vehicle>
    <vehicle id="626" depart="250.40">
        <route edges="E8 E10 E12 E16 E18 E19 E21 E28 E31 E32 E36 E39 E48 gneE22 E53 E57 E58"/>
    </vehicle>
    <vehicle id="627" depart="250.80">
        <route edges="E21 E28 E31 E32"/>
    </vehicle>
    <vehicle id="629" depart="251.60">
        <route edges="E20 E17 E15 E14"/>
    </vehicle>
    <vehicle id="630" depart="252.00">
        <route edges="E22 E28 E31"/>
    </vehicle>
    <vehicle id="631" depart="252.40">
        <route edges="E13 E16 E18 E19 E21 E28 E31 E32"/>
    </vehicle>
    <vehicle id="640" depart="256.00">
        <route edges="E5 E10 E12 E16 E18 E19 E21 E28 E31 E32 E34"/>
    </vehicle>
    <vehicle id="641" depart="256.40">
        <route edges="E18 E19 E21 E28 E31 E32 E36 E39 E45 E43"/>
    </vehicle>
    <vehicle id="648" depart="259.20">
        <route edges="E31 E32"/>
    </vehicle>
    <vehicle id="650" depart="260.00">
        <route edges="E20 E17"/>
    </vehicle>
    <vehicle id="651" depart="260.40">
        <route edges="E5 E10 E12 E16 E18 E19 E21 E28 E31 E32 E36 E39 E41"/>
    </vehicle>
    <vehicle id="652" depart="260.80">
        <route edges="E27 E20"/>
    </vehicle>
    <vehicle id="654" depart="261.60">
        <route edges="E44 E46 E38 E37 E35 E30 E29 E27 E20 E17 E15 E11 E9 E6"/>
    </vehicle>
    <vehicle id="656" depart="262.40">
        <route edges="E40 E42 E45 E43"/>
    </vehicle>
    <vehicle id="661" depart="264.40">
        <route edges="E44 E46 E38 E37 E35 E30 E29 E27 E20 E17 E15"/>
    </vehicle>
    <vehicle id="662" depart="264.80">
        <route edges="E56 E52 E50 E49 E47 E38 E37 E35"/>
    </vehicle>
    <vehicle id="663" depart="265.20">
        <route edges="E40 E42 E38 E37 E35 E30"/>
    </vehicle>
    <vehicle id="674" depart="269.60">
        <route edges="E26 E25 E28 E31 E32 E36 E39"/>
    </vehicle>
    <vehicle id="675" depart="270.00">
        <route edges="E37 E35 E30 E29 E27"/>
    </vehicle>
    <vehicle id="676" depart="270.40">
        <route edges="E18"/>
    </vehicle>
    <vehicle id="678" depart="271.20">
        <route edges="E10 E12 E16 E18 E19 E21 E28 E31 E32"/>
    </vehicle>
    <vehicle id="680" depart="272.00">
        <route edges="E54 E52 E50 E49 E47"/>
    </vehicle>
    <vehicle id="681" depart="272.40">
        <route edges="E38"/>
    </vehicle>
    <vehicle id="688" depart="275.20">
        <route edges="E31 E32 E36 E39 E45 E43"/>
    </vehicle>
    <vehicle id="691" depart="276.40">
        <route edges="E44 E46 E48 gneE22 E53"/>
    </vehicle>
    <vehicle id="692" depart="276.80">
        <route edges="E17 E15 E11 E9 E2 E0"/>
    </vehicle>
    <vehicle id="693" depart="277.20">
        <route edges="E32 E36 E39 E48 gneE22"/>
    </vehicle>
    <vehicle id="697" depart="278.80">
        <route edges="E44 E46 E38 E37 E35 E30 E29 E27 E24"/>
    </vehicle>
    <vehicle id="698" depart="279.20">
        <route edges="E35 E30 E29 E27"/>
    </vehicle>
    <vehicle id="699" depart="279.60">
        <route edges="E33 E36 E39"/>
    </vehicle>
    <vehicle id="700" depart="280.00">
        <route edges="E25 E20 E17 E15 E11 E9"/>
    </vehicle>
    <vehicle id="703" depart="281.20">
        <route edges="E20 E17"/>
    </vehicle>
    <vehicle id="707" depart="282.80">
        <route edges="E12 E16 E18 E19 E21"/>
    </vehicle>
    <vehicle id="710" depart="284.00">
        <route edges="E38 E37 E35 E34"/>
    </vehicle>
    <vehicle id="711" depart="284.40">
        <route edges="E25 E28 E31 E32 E36 E39 E48 gneE22 E53 E57 E58"/>
    </vehicle>
    <vehicle id="712" depart="284.80">
        <route edges="E10 E12 E16 E18 E19 E21 E28 E31 E32 E36 E39 E41"/>
    </vehicle>
    <vehicle id="715" depart="286.00">
        <route edges="E4 E10 E12 E16 E18 E19"/>
    </vehicle>
    <vehicle id="716" depart="286.40">
        <route edges="E52 E50 E49 E47 E38 E37 E35 E30 E29 E27 E20 E17 E15 E11 E9 E2"/>
    </vehicle>