<?xml version="1.0" encoding="UTF-8"?>

<!-- generated on 2021-09-29 19:48:13 by Eclipse SUMO duarouter Version 1.9.2
<configuration xmlns:xsi="http://www.w3.org/2001/XMLSchema-instance" xsi:noNamespaceSchemaLocation="http://sumo.dlr.de/xsd/duarouterConfiguration.xsd">

    <input>
        <net-file value="/home/sonic/Desktop/nets/case06/intersection.net.xml"/>
        <route-files value="trips.trips.xml"/>
    </input>

    <output>
        <output-file value="intersection_random10.rou.xml"/>
        <alternatives-output value="intersection_random10.rou.alt.xml"/>
    </output>

    <time>
        <begin value="0"/>
        <end value="18000.0"/>
    </time>

    <report>
        <no-warnings value="true"/>
        <ignore-errors value="true"/>
        <no-step-log value="true"/>
    </report>

</configuration>
-->

<routes xmlns:xsi="http://www.w3.org/2001/XMLSchema-instance" xsi:noNamespaceSchemaLocation="http://sumo.dlr.de/xsd/routes_file.xsd">
    <vehicle id="0" depart="0.00">
        <route edges="E35 E30 E29 E27 E20 E17 E15 E11 E9 E2"/>
    </vehicle>
    <vehicle id="5" depart="1.50">
        <route edges="E10 E12 E16 E18 E19 E21 E28 E31 E32 E34"/>
    </vehicle>
    <vehicle id="7" depart="2.10">
        <route edges="E11 E9 E2"/>
    </vehicle>
    <vehicle id="12" depart="3.60">
        <route edges="E4 E10 E12 E16 E18 E19 E21 E28 E31 E32 E36 E39 E48"/>
    </vehicle>
    <vehicle id="13" depart="3.90">
        <route edges="E26 E25 E28 E31 E32 E36 E39"/>
    </vehicle>
    <vehicle id="15" depart="4.50">
        <route edges="E11 E9"/>
    </vehicle>
    <vehicle id="16" depart="4.80">
        <route edges="E46 E38 E37 E35 E30 E29 E27 E20 E17 E15"/>
    </vehicle>
    <vehicle id="17" depart="5.10">
        <route edges="E15 E11 E9 E7"/>
    </vehicle>
    <vehicle id="18" depart="5.40">
        <route edges="E1 E4"/>
    </vehicle>
    <vehicle id="23" depart="6.90">
        <route edges="E4 E10 E12 E16 E18 E19 E21 E28 E31 E32 E36 E39 E45"/>
    </vehicle>
    <vehicle id="28" depart="8.40">
        <route edges="E44 E46 E38 E37 E35 E30 E29 E27 E20 E17 E15 E11 E9 E6"/>
    </vehicle>
    <vehicle id="30" depart="9.00">
        <route edges="E56 E52 E50 E49 E47 E38 E37 E35 E30 E29 E27 E20"/>
    </vehicle>
    <vehicle id="33" depart="9.90">
        <route edges="E33 E30 E29 E27 E20 E17 E15"/>
    </vehicle>
    <vehicle id="35" depart="10.50">
        <route edges="E4 E10 E12 E16 E18 E19 E21 E28 E31 E32 E36 E39 E48 gneE22 E53 E57"/>
    </vehicle>
    <vehicle id="36" depart="10.80">
        <route edges="E42 E48 gneE22 E53 E57"/>
    </vehicle>
    <vehicle id="37" depart="11.10">
        <route edges="E26 E25"/>
    </vehicle>
    <vehicle id="38" depart="11.40">
        <route edges="E52 E50 E49 E47 E38 E37 E35 E34"/>
    </vehicle>
    <vehicle id="39" depart="11.70">
        <route edges="E25 E20 E17 E15 E11 E9 E2"/>
    </vehicle>
    <vehicle id="41" depart="12.30">
        <route edges="E26 E25 E28 E31 E32 E36 E39 E48"/>
    </vehicle>
    <vehicle id="43" depart="12.90">
        <route edges="E40 E42 E48 gneE22 E53 E57"/>
    </vehicle>
    <vehicle id="46" depart="13.80">
        <route edges="E26 E25 E20 E17 E15 E11 E9 E6"/>
    </vehicle>
    <vehicle id="47" depart="14.10">
        <route edges="E40 E42 E48 gneE22 E53 E57"/>
    </vehicle>
    <vehicle id="52" depart="15.60">
        <route edges="E12 E16 E18 E19 E21 E28 E31 E32 E36 E39 E48 gneE22 E53 E57 E58"/>
    </vehicle>
    <vehicle id="54" depart="16.20">
        <route edges="E56 E52 E50 E49 E47 E38 E37 E35 E30 E29 E27 E24"/>
    </vehicle>
    <vehicle id="57" depart="17.10">
        <route edges="E40 E42 E45"/>
    </vehicle>
    <vehicle id="59" depart="17.70">
        <route edges="E46 E38 E37 E35 E30 E29 E27 E23"/>
    </vehicle>
    <vehicle id="62" depart="18.60">
        <route edges="E44 E46 E38 E37 E35 E34"/>
    </vehicle>
    <vehicle id="64" depart="19.20">
        <route edges="E16"/>
    </vehicle>
    <vehicle id="65" depart="19.50">
        <route edges="E42 E38 E37 E35 E30 E29 E27 E20 E17 E15 E11 E9 E2 E0"/>
    </vehicle>
    <vehicle id="67" depart="20.10">
        <route edges="E46 E38 E37 E35 E30 E29 E27 E20 E17 E15"/>
    </vehicle>
    <vehicle id="69" depart="20.70">
        <route edges="E44 E46 E38 E37 E35 E30 E29 E27 E20 E17 E15"/>
    </vehicle>
    <vehicle id="72" depart="21.60">
        <route edges="E29 E27 E20 E17 E15"/>
    </vehicle>
    <vehicle id="77" depart="23.10">
        <route edges="E56 E52 E50 E49 E47 E41"/>
    </vehicle>
    <vehicle id="79" depart="23.70">
        <route edges="E42 E38"/>
    </vehicle>
    <vehicle id="81" depart="24.30">
        <route edges="E50 E49 E47 E38 E37 E35 E30 E29 E27 E20 E17"/>
    </vehicle>
    <vehicle id="82" depart="24.60">
        <route edges="E25 E28 E31 E32 E36 E39 E48 gneE22"/>
    </vehicle>
    <vehicle id="83" depart="24.90">
        <route edges="E19 E21 E28 E31 E32 E36 E39 E41"/>
    </vehicle>
    <vehicle id="85" depart="25.50">
        <route edges="E33 E30 E29 E27 E20 E17 E15 E11 E9 E2 E0"/>
    </vehicle>
    <vehicle id="87" depart="26.10">
        <route edges="E18 E19 E21 E28 E31 E32 E36 E39 E41"/>
    </vehicle>
    <vehicle id="88" depart="26.40">
        <route edges="E27 E20 E17 E15"/>
    </vehicle>
    <vehicle id="89" depart="26.70">
        <route edges="E42 E38 E37 E35 E30 E29 E27 E20"/>
    </vehicle>
    <vehicle id="95" depart="28.50">
        <route edges="E50 E49 E47 E41"/>
    </vehicle>
    <vehicle id="97" depart="29.10">
        <route edges="E13 E16 E18 E19 E21 E28 E31 E32 E36 E39 E48 gneE22 E53"/>
    </vehicle>
    <vehicle id="98" depart="29.40">
        <route edges="E54 E52"/>
    </vehicle>
    <vehicle id="99" depart="29.70">
        <route edges="E26 E25 E28 E31 E32 E36 E39 E48"/>
    </vehicle>
    <vehicle id="100" depart="30.00">
        <route edges="E49 E47 E38 E37 E35 E30 E29 E27 E23"/>
    </vehicle>
    <vehicle id="101" depart="30.30">
        <route edges="E19 E21 E28 E31 E32 E34"/>
    </vehicle>
    <vehicle id="102" depart="30.60">
        <route edges="E42 E38 E37 E35"/>
    </vehicle>
    <vehicle id="103" depart="30.90">
        <route edges="E22 E28 E31 E32"/>
    </vehicle>
    <vehicle id="104" depart="31.20">
        <route edges="E35 E30 E29 E27 E20"/>
    </vehicle>
    <vehicle id="106" depart="31.80">
        <route edges="gneE22 E53 E57"/>
    </vehicle>
    <vehicle id="109" depart="32.70">
        <route edges="E33 E36 E39 E48 gneE22 E53"/>
    </vehicle>
    <vehicle id="110" depart="33.00">
        <route edges="E40 E42 E38 E37 E35 E30 E29 E27 E20"/>
    </vehicle>
    <vehicle id="111" depart="33.30">
        <route edges="E1 E4 E10 E12 E16 E18 E19 E21 E28 E31 E32"/>
    </vehicle>
    <vehicle id="117" depart="35.10">
        <route edges="E9 E2"/>
    </vehicle>
    <vehicle id="121" depart="36.30">
        <route edges="E18 E19"/>
    </vehicle>
    <vehicle id="122" depart="36.60">
        <route edges="E52 E50 E49 E47 E38 E37 E35 E30"/>
    </vehicle>
    <vehicle id="126" depart="37.80">
        <route edges="E18 E19 E21 E28 E31 E32 E36 E39 E45"/>
    </vehicle>
    <vehicle id="129" depart="38.70">
        <route edges="E19 E21 E24"/>
    </vehicle>
    <vehicle id="130" depart="39.00">
        <route edges="E4 E10 E12 E16 E18 E19 E21 E28 E31 E32 E36 E39 E48 gneE22 E53"/>
    </vehicle>
    <vehicle id="132" depart="39.60">
        <route edges="E1 E4 E10 E12 E16 E18 E19"/>
    </vehicle>
    <vehicle id="133" depart="39.90">
        <route edges="E56 E52 E50 E49 E47 E38 E37 E35 E30 E29 E27 E20 E17 E15"/>
    </vehicle>
    <vehicle id="136" depart="40.80">
        <route edges="E19 E21 E28 E31 E32 E36 E39 E45 E43"/>
    </vehicle>
    <vehicle id="138" depart="41.40">
        <route edges="E35 E30 E29 E27 E20 E17 E15 E11"/>
    </vehicle>
    <vehicle id="142" depart="42.60">
        <route edges="E20"/>
    </vehicle>
    <vehicle id="143" depart="42.90">
        <route edges="E22 E20 E17 E15 E11 E9"/>
    </vehicle>
    <vehicle id="149" depart="44.70">
        <route edges="E13 E16 E18 E19 E21 E28 E31 E32 E34"/>
    </vehicle>
    <vehicle id="154" depart="46.20">
        <route edges="E5 E2"/>
    </vehicle>
    <vehicle id="158" depart="47.40">
        <route edges="E56 E52 E50 E49 E47 E38 E37 E35"/>
    </vehicle>
    <vehicle id="159" depart="47.70">
        <route edges="E18 E19 E21 E24"/>
    </vehicle>
    <vehicle id="163" depart="48.90">
        <route edges="E50 E49"/>
    </vehicle>
    <vehicle id="165" depart="49.50">
        <route edges="E4 E10 E12 E16 E18 E19 E21 E28 E31 E32 E34"/>
    </vehicle>
    <vehicle id="172" depart="51.60">
        <route edges="E26 E25 E28 E31 E32 E36 E39 E48 gneE22 E53"/>
    </vehicle>
    <vehicle id="174" depart="52.20">
        <route edges="E44 E46 E48 gneE22"/>
    </vehicle>
    <vehicle id="176" depart="52.80">
        <route edges="E32 E36 E39 E48 gneE22"/>
    </vehicle>
    <vehicle id="177" depart="53.10">
        <route edges="E31 E32 E36 E39 E48"/>
    </vehicle>
    <vehicle id="179" depart="53.70">
        <route edges="E21 E28 E31 E32 E36 E39 E48 gneE22"/>
    </vehicle>
    <vehicle id="183" depart="54.90">
        <route edges="E44 E46 E38 E37 E35 E34"/>
    </vehicle>
    <vehicle id="184" depart="55.20">
        <route edges="E29 E27 E20 E17 E15 E11 E9 E2 E0"/>
    </vehicle>
    <vehicle id="196" depart="58.80">
        <route edges="E35 E30 E29 E27 E20 E17 E15 E11 E9 E2"/>
    </vehicle>
    <vehicle id="198" depart="59.40">
        <route edges="E46 E38 E37 E35"/>
    </vehicle>
    <vehicle id="199" depart="59.70">
        <route edges="E4 E10 E12 E16 E18 E19 E21 E23"/>
    </vehicle>
    <vehicle id="201" depart="60.30">
        <route edges="E9 E2 E0"/>
    </vehicle>
    <vehicle id="204" depart="61.20">
        <route edges="E17 E15 E11"/>
    </vehicle>
    <vehicle id="207" depart="62.10">
        <route edges="E33 E30"/>
    </vehicle>
    <vehicle id="209" depart="62.70">
        <route edges="E35 E30 E29 E27 E23"/>
    </vehicle>
    <vehicle id="213" depart="63.90">
        <route edges="E20 E17 E15 E14"/>
    </vehicle>
    <vehicle id="214" depart="64.20">
        <route edges="E52 E50 E49 E47 E38 E37 E35 E30 E29 E27 E20 E17"/>
    </vehicle>
    <vehicle id="217" depart="65.10">
        <route edges="E21 E28 E31 E32 E36 E39 E48 gneE22 E53"/>
    </vehicle>
    <vehicle id="219" depart="65.70">
        <route edges="E5 E10 E12 E16 E18 E19 E21 E28 E31"/>
    </vehicle>
    <vehicle id="220" depart="66.00">
        <route edges="E15 E11 E9 E6"/>
    </vehicle>
    <vehicle id="221" depart="66.30">
        <route edges="E49 E47 E38 E37 E35 E30 E29 E27 E20 E17 E15 E11 E9 E6"/>
    </vehicle>
    <vehicle id="226" depart="67.80">
        <route edges="E12 E16 E18 E19 E21 E28 E31 E32 E34"/>
    </vehicle>
    <vehicle id="228" depart="68.40">
        <route edges="E25 E28 E31 E32 E36 E39 E48"/>
    </vehicle>
    <vehicle id="234" depart="70.20">
        <route edges="E22 E28 E31 E32"/>
    </vehicle>
    <vehicle id="235" depart="70.50">
        <route edges="E33 E36 E39"/>
    </vehicle>
    <vehicle id="237" depart="71.10">
        <route edges="E33 E36 E39 E48 gneE22"/>
    </vehicle>
    <vehicle id="241" depart="72.30">
        <route edges="E27 E23"/>
    </vehicle>
    <vehicle id="244" depart="73.20">
        <route edges="E49 E47 E38 E37 E35 E30 E29 E27 E20 E17 E15 E11 E9"/>
    </vehicle>
    <vehicle id="246" depart="73.80">
        <route edges="E37 E35 E30 E29 E27 E20 E17 E15 E11 E9 E2 E0"/>
    </vehicle>
    <vehicle id="247" depart="74.10">
        <route edges="E36 E39 E48"/>
    </vehicle>
    <vehicle id="254" depart="76.20">
        <route edges="E28 E31 E32 E36 E39 E45"/>
    </vehicle>
    <vehicle id="257" depart="77.10">
        <route edges="E26 E25 E28 E31 E32 E36 E39 E48 gneE22 E53 E57 E58"/>
    </vehicle>
    <vehicle id="263" depart="78.90">
        <route edges="E4 E10 E12 E16 E18 E19 E21"/>
    </vehicle>
    <vehicle id="264" depart="79.20">
        <route edges="E29 E27 E20 E17 E15 E11 E9 E7"/>
    </vehicle>
    <vehicle id="265" depart="79.50">
        <route edges="E11 E9 E7"/>
    </vehicle>
    <vehicle id="266" depart="79.80">
        <route edges="E26 E25 E20 E17 E15 E14"/>
    </vehicle>
    <vehicle id="269" depart="80.70">
        <route edges="E12 E16 E18 E19 E21 E23"/>
    </vehicle>
    <vehicle id="272" depart="81.60">
        <route edges="E50 E49 E47 E38 E37 E35 E30 E29 E27 E20 E17 E15 E11 E9 E2"/>
    </vehicle>
    <vehicle id="273" depart="81.90">
        <route edges="E39 E45"/>
    </vehicle>
    <vehicle id="276" depart="82.80">
        <route edges="E50 E49 E47 E38 E37 E35 E30 E29 E27 E23"/>
    </vehicle>
    <vehicle id="282" depart="84.60">
        <route edges="E52 E50 E49 E47 E38 E37 E35 E30 E29 E27 E20"/>
    </vehicle>
    <vehicle id="283" depart="84.90">
        <route edges="E8 E10 E12 E16 E18 E19 E21 E23"/>
    </vehicle>
    <vehicle id="284" depart="85.20">
        <route edges="E44 E46 E38 E37 E35 E30 E29 E27 E23"/>
    </vehicle>
    <vehicle id="285" depart="85.50">
        <route edges="E49 E47 E38 E37 E35 E30 E29 E27"/>
    </vehicle>
    <vehicle id="287" depart="86.10">
        <route edges="E16 E18 E19 E21 E28 E31 E32"/>
    </vehicle>
    <vehicle id="288" depart="86.40">
        <route edges="E25 E28 E31 E32"/>
    </vehicle>
    <vehicle id="290" depart="87.00">
        <route edges="E49 E47 E41"/>
    </vehicle>
    <vehicle id="291" depart="87.30">
        <route edges="E49 E47 E38"/>
    </vehicle>
    <vehicle id="292" depart="87.60">
        <route edges="E16 E18 E19 E21 E28 E31 E32 E36 E39 E45 E43"/>
    </vehicle>
    <vehicle id="293" depart="87.90">
        <route edges="E47 E38 E37 E35 E30"/>
    </vehicle>
    <vehicle id="296" depart="88.80">
        <route edges="E26 E25 E28 E31 E32 E36 E39 E48"/>
    </vehicle>
    <vehicle id="299" depart="89.70">
        <route edges="E12 E16 E18 E19 E21 E28 E31 E32"/>
    </vehicle>
    <vehicle id="301" depart="90.30">
        <route edges="E25 E20 E17 E15 E11 E9 E2 E0"/>
    </vehicle>
    <vehicle id="302" depart="90.60">
        <route edges="E13 E16 E18 E19 E21 E28 E31 E32 E36 E39 E48 gneE22 E53"/>
    </vehicle>
    <vehicle id="303" depart="90.90">
        <route edges="E15 E14"/>
    </vehicle>
    <vehicle id="310" depart="93.00">
        <route edges="E25 E20 E17 E15 E11 E9 E2"/>
    </vehicle>
    <vehicle id="311" depart="93.30">
        <route edges="E4 E10 E12 E16 E18 E19 E21 E28 E31 E32 E36 E39 E48 gneE22 E53 E57"/>
    </vehicle>
    <vehicle id="314" depart="94.20">
        <route edges="E42 E48 gneE22 E53"/>
    </vehicle>
    <vehicle id="319" depart="95.70">
        <route edges="E38"/>
    </vehicle>
    <vehicle id="320" depart="96.00">
        <route edges="gneE22"/>
    </vehicle>
    <vehicle id="321" depart="96.30">
        <route edges="E50 E49 E47 E38 E37 E35 E30"/>
    </vehicle>
    <vehicle id="324" depart="97.20">
        <route edges="E26 E25 E20 E17"/>
    </vehicle>
    <vehicle id="325" depart="97.50">
        <route edges="E19 E21 E28"/>
    </vehicle>
    <vehicle id="326" depart="97.80">
        <route edges="E39 E45"/>
    </vehicle>
    <vehicle id="327" depart="98.10">
        <route edges="E42 E48 gneE22 E53"/>
    </vehicle>
    <vehicle id="328" depart="98.40">
        <route edges="E40 E42 E38"/>
    </vehicle>
    <vehicle id="332" depart="99.60">
        <route edges="E13 E11"/>
    </vehicle>
    <vehicle id="335" depart="100.50">
        <route edges="E9 E6"/>
    </vehicle>
    <vehicle id="337" depart="101.10">
        <route edges="E8 E10 E12 E16 E18 E19 E21 E28 E31 E32 E36 E39 E41"/>
    </vehicle>
    <vehicle id="340" depart="102.00">
        <route edges="E8 E10 E12 E16 E18 E19 E21 E28 E31 E32 E36 E39 E48 gneE22"/>
    </vehicle>
    <vehicle id="345" depart="103.50">
        <route edges="E47 E38 E37 E35 E30 E29 E27 E20 E17 E15 E11 E9 E6"/>
    </vehicle>
    <vehicle id="347" depart="104.10">
        <route edges="E21 E28 E31 E32 E36 E39 E48 gneE22 E53"/>
    </vehicle>
    <vehicle id="357" depart="107.10">
        <route edges="E50 E49 E47 E41"/>
    </vehicle>
    <vehicle id="358" depart="107.40">
        <route edges="E21 E24"/>
    </vehicle>
    <vehicle id="359" depart="107.70">
        <route edges="E25 E28 E31 E32 E36 E39 E48 gneE22 E53 E57"/>
    </vehicle>
    <vehicle id="360" depart="108.00">
        <route edges="E54 E52 E50 E49 E47 E38 E37 E35 E30 E29 E27 E20 E17 E15 E11 E9 E7"/>
    </vehicle>
    <vehicle id="363" depart="108.90">
        <route edges="E25 E28 E31 E32 E36 E39"/>
    </vehicle>
    <vehicle id="370" depart="111.00">
        <route edges="E42 E45"/>
    </vehicle>
    <vehicle id="371" depart="111.30">
        <route edges="E26 E25"/>
    </vehicle>
    <vehicle id="375" depart="112.50">
        <route edges="E47 E38 E37 E35"/>
    </vehicle>
    <vehicle id="376" depart="112.80">
        <route edges="E8 E10 E12 E16 E18 E19 E21 E28 E31 E32 E36 E39 E45"/>
    </vehicle>
    <vehicle id="386" depart="115.80">
        <route edges="E11 E9"/>
    </vehicle>
    <vehicle id="389" depart="116.70">
        <route edges="E31 E32 E36 E39 E48 gneE22 E53"/>
    </vehicle>
    <vehicle id="391" depart="117.30">
        <route edges="E1 E4 E10 E12 E16 E18 E19 E21 E28 E31 E32 E36 E39 E45 E43"/>
    </vehicle>
    <vehicle id="393" depart="117.90">
        <route edges="E53 E57"/>
    </vehicle>
    <vehicle id="396" depart="118.80">
        <route edges="E19 E21 E28 E31 E32 E36 E39 E48"/>
    </vehicle>
    <vehicle id="399" depart="119.70">
        <route edges="E42 E38 E37 E35 E30 E29 E27 E20 E17 E15 E14"/>
    </vehicle>
    <vehicle id="402" depart="120.60">
        <route edges="E17 E15 E14"/>
    </vehicle>
    <vehicle id="410" depart="123.00">
        <route edges="E42 E45"/>
    </vehicle>
    <vehicle id="412" depart="123.60">
        <route edges="E25 E28 E31 E32 E36 E39"/>
    </vehicle>
    <vehicle id="414" depart="124.20">
        <route edges="E27"/>
    </vehicle>
    <vehicle id="416" depart="124.80">
        <route edges="E33 E36 E39 E48 gneE22 E53 E57 E58"/>
    </vehicle>
    <vehicle id="419" depart="125.70">
        <route edges="E12 E16 E18 E19 E21 E28 E31 E32 E36 E39 E48"/>
    </vehicle>
    <vehicle id="422" depart="126.60">
        <route edges="E1 E4 E10 E12 E16 E18 E19 E21 E24"/>
    </vehicle>
    <vehicle id="424" depart="127.20">
        <route edges="E17 E15 E11"/>
    </vehicle>
    <vehicle id="425" depart="127.50">
        <route edges="E19 E21 E28 E31 E32 E36 E39 E48 gneE22 E53 E57"/>
    </vehicle>
    <vehicle id="431" depart="129.30">
        <route edges="E39 E48"/>
    </vehicle>
    <vehicle id="432" depart="129.60">
        <route edges="E1 E4 E10 E12 E16 E18 E19 E21 E28 E31 E32"/>
    </vehicle>
    <vehicle id="436" depart="130.80">
        <route edges="E47 E38 E37"/>
    </vehicle>
    <vehicle id="442" depart="132.60">
        <route edges="E18 E19 E21 E28 E31 E32 E36 E39"/>
    </vehicle>
    <vehicle id="443" depart="132.90">
        <route edges="E40 E42 E38 E37 E35"/>
    </vehicle>
    <vehicle id="447" depart="134.10">
        <route edges="E4 E10 E12"/>
    </vehicle>
    <vehicle id="448" depart="134.40">
        <route edges="E42 E38 E37"/>
    </vehicle>
    <vehicle id="453" depart="135.90">
        <route edges="E40 E42 E38 E37 E35 E30 E29 E27 E20 E17 E15 E11 E9 E7"/>
    </vehicle>
    <vehicle id="454" depart="136.20">
        <route edges="E46 E38 E37 E35 E30"/>
    </vehicle>
    <vehicle id="455" depart="136.50">
        <route edges="E49 E47 E38 E37 E35 E30 E29 E27 E20 E17 E15 E11"/>
    </vehicle>
    <vehicle id="456" depart="136.80">
        <route edges="E31 E32 E36 E39 E48 gneE22 E53 E57 E58"/>
    </vehicle>
    <vehicle id="457" depart="137.10">
        <route edges="E40 E42 E38 E37 E35 E30 E29 E27 E24"/>
    </vehicle>
    <vehicle id="459" depart="137.70">
        <route edges="gneE22"/>
    </vehicle>
    <vehicle id="463" depart="138.90">
        <route edges="E13 E16 E18 E19 E21 E28 E31"/>
    </vehicle>
    <vehicle id="466" depart="139.80">
        <route edges="E47 E38 E37 E35 E30 E29 E27 E20 E17 E15 E14"/>
    </vehicle>
    <vehicle id="468" depart="140.40">
        <route edges="E49 E47 E38 E37 E35 E30 E29 E27 E23"/>
    </vehicle>
    <vehicle id="470" depart="141.00">
        <route edges="E1 E4 E6"/>
    </vehicle>
    <vehicle id="471" depart="141.30">
        <route edges="E25 E20 E17 E15"/>
    </vehicle>
    <vehicle id="473" depart="141.90">
        <route edges="E54 E52"/>
    </vehicle>
    <vehicle id="474" depart="142.20">
        <route edges="E52 E50 E49 E47 E38 E37 E35 E30 E29 E27 E20 E17 E15 E11 E9 E7"/>
    </vehicle>
    <vehicle id="476" depart="142.80">
        <route edges="E19 E21 E28 E31 E32 E36 E39 E48 gneE22 E53 E57 E58"/>
    </vehicle>
    <vehicle id="477" depart="143.10">
        <route edges="E15 E11"/>
    </vehicle>
    <vehicle id="478" depart="143.40">
        <route edges="E12 E16 E18 E19 E21 E28 E31 E32 E36 E39 E48 gneE22 E53 E55"/>
    </vehicle>
    <vehicle id="480" depart="144.00">
        <route edges="E5 E10 E12"/>
    </vehicle>
    <vehicle id="481" depart="144.30">
        <route edges="E38 E37 E35 E30 E29 E27 E20 E17 E15 E14"/>
    </vehicle>
    <vehicle id="484" depart="145.20">
        <route edges="E4 E10 E12 E16 E18 E19 E21 E28 E31 E32 E36 E39 E48"/>
    </vehicle>
    <vehicle id="485" depart="145.50">
        <route edges="E42 E38 E37 E35 E30 E29 E27 E20 E17 E15"/>
    </vehicle>
    <vehicle id="488" depart="146.40">
        <route edges="E44 E46 E38 E37 E35 E30 E29 E27 E20 E17 E15 E11 E9 E6"/>
    </vehicle>
    <vehicle id="491" depart="147.30">
        <route edges="E31 E32 E34"/>
    </vehicle>
    <vehicle id="492" depart="147.60">
        <route edges="E15 E11 E9 E2 E0"/>
    </vehicle>
    <vehicle id="494" depart="148.20">
        <route edges="E15 E11 E9"/>
    </vehicle>
    <vehicle id="500" depart="150.00">
        <route edges="E17 E15 E11 E9 E2"/>
    </vehicle>
    <vehicle id="501" depart="150.30">
        <route edges="E52 E50 E49 E47 E38 E37 E35 E30 E29 E27 E20 E17 E15 E11 E9 E2 E0"/>
    </vehicle>
    <vehicle id="505" depart="151.50">
        <route edges="E25 E20 E17 E15"/>
    </vehicle>
    <vehicle id="506" depart="151.80">
        <route edges="E19 E21 E28 E31 E32 E36 E39 E48 gneE22 E53 E57 E58"/>
    </vehicle>
    <vehicle id="509" depart="152.70">
        <route edges="E18 E19 E21 E28 E31 E32 E36 E39 E45"/>
    </vehicle>
    <vehicle id="511" depart="153.30">
        <route edges="E50 E49 E47 E38 E37 E35 E30 E29 E27 E20 E17 E15 E11 E9"/>
    </vehicle>
    <vehicle id="513" depart="153.90">
        <route edges="E42 E48 gneE22 E53 E57 E58"/>
    </vehicle>
    <vehicle id="514" depart="154.20">
        <route edges="E50 E49 E47 E38 E37 E35 E30"/>
    </vehicle>
    <vehicle id="519" depart="155.70">
        <route edges="E5 E10 E12 E16 E18 E19 E21 E28 E31 E32 E36 E39 E45 E43"/>
    </vehicle>
    <vehicle id="520" depart="156.00">
        <route edges="E22 E28 E31 E32 E36 E39 E48 gneE22 E53 E57 E58"/>
    </vehicle>
    <vehicle id="524" depart="157.20">
        <route edges="E1 E4 E10 E12 E16 E18 E19 E21 E28 E31 E32 E36 E39 E48 gneE22 E53 E57 E58"/>
    </vehicle>
    <vehicle id="526" depart="157.80">
        <route edges="E19 E21 E28 E31 E32 E36 E39 E45 E43"/>
    </vehicle>
    <vehicle id="527" depart="158.10">
        <route edges="E36 E39"/>
    </vehicle>
    <vehicle id="533" depart="159.90">
        <route edges="E5 E10 E12 E16 E18 E19 E21 E28 E31"/>
    </vehicle>
    <vehicle id="534" depart="160.20">
        <route edges="E33 E36 E39 E48"/>
    </vehicle>
    <vehicle id="535" depart="160.50">
        <route edges="E26 E25 E28 E31 E32 E36 E39"/>
    </vehicle>
    <vehicle id="538" depart="161.40">
        <route edges="gneE22 E53"/>
    </vehicle>
    <vehicle id="544" depart="163.20">
        <route edges="E50 E49 E47 E38"/>
    </vehicle>
    <vehicle id="548" depart="164.40">
        <route edges="E19 E21 E28 E31 E32 E36 E39 E48 gneE22 E53 E57 E58"/>
    </vehicle>
    <vehicle id="553" depart="165.90">
        <route edges="E28 E31"/>
    </vehicle>
    <vehicle id="556" depart="166.80">
        <route edges="E25 E28 E31 E32 E36 E39 E48 gneE22"/>
    </vehicle>
    <vehicle id="560" depart="168.00">
        <route edges="E10 E12 E16 E18 E19 E21 E28 E31 E32 E34"/>
    </vehicle>
    <vehicle id="561" depart="168.30">
        <route edges="E52 E50 E49 E47 E38 E37 E35 E30 E29 E27 E20 E17 E15 E11 E9 E2"/>
    </vehicle>
    <vehicle id="562" depart="168.60">
        <route edges="E10 E12 E16 E18 E19 E21 E28 E31 E32 E36 E39 E45"/>
    </vehicle>
    <vehicle id="570" depart="171.00">
        <route edges="E8 E10 E12 E16 E18 E19 E21 E28 E31 E32 E36 E39 E48"/>
    </vehicle>
    <vehicle id="571" depart="171.30">
        <route edges="E37 E35 E30"/>
    </vehicle>
    <vehicle id="575" depart="172.50">
        <route edges="E46 E48 gneE22 E53 E57"/>
    </vehicle>
    <vehicle id="580" depart="174.00">
        <route edges="E18 E19"/>
    </vehicle>
    <vehicle id="581" depart="174.30">
        <route edges="E13 E16 E18 E19 E21 E28 E31 E32 E36 E39 E48 gneE22 E53 E57"/>
    </vehicle>
    <vehicle id="583" depart="174.90">
        <route edges="E50 E49 E47 E38 E37 E35 E30 E29 E27 E23"/>
    </vehicle>
    <vehicle id="585" depart="175.50">
        <route edges="gneE22 E53 E55"/>
    </vehicle>
    <vehicle id="586" depart="175.80">
        <route edges="E46 E38 E37 E35 E30 E29 E27 E20 E17 E15 E11 E9"/>
    </vehicle>
    <vehicle id="588" depart="176.40">
        <route edges="E44 E46 E38 E37 E35 E30 E29 E27"/>
    </vehicle>
    <vehicle id="589" depart="176.70">
        <route edges="E5 E10 E12 E16 E18 E19 E21 E28 E31 E32 E36 E39"/>
    </vehicle>
    <vehicle id="591" depart="177.30">
        <route edges="E50 E49"/>
    </vehicle>
    <vehicle id="592" depart="177.60">
        <route edges="E42 E38 E37 E35 E30 E29 E27 E20 E17 E15 E14"/>
    </vehicle>
    <vehicle id="593" depart="177.90">
        <route edges="E30 E29 E27 E20 E17 E15 E11 E9"/>
    </vehicle>
    <vehicle id="596" depart="178.80">
        <route edges="E29 E27 E20 E17"/>
    </vehicle>
    <vehicle id="597" depart="179.10">
        <route edges="E52 E50 E49 E47 E38 E37 E35 E30 E29"/>
    </vehicle>
    <vehicle id="598" depart="179.40">
        <route edges="E10 E12 E16 E18 E19 E21 E28 E31 E32 E36 E39 E48 gneE22 E53"/>
    </vehicle>
    <vehicle id="606" depart="181.80">
        <route edges="E22 E20"/>
    </vehicle>
    <vehicle id="612" depart="183.60">
        <route edges="E47 E38 E37 E35 E30 E29 E27 E24"/>
    </vehicle>
    <vehicle id="613" depart="183.90">
        <route edges="E32 E36 E39 E48 gneE22"/>
    </vehicle>
    <vehicle id="617" depart="185.10">
        <route edges="E42 E38 E37 E35 E30 E29 E27 E20 E17 E15 E11 E9 E2"/>
    </vehicle>
    <vehicle id="618" depart="185.40">
        <route edges="E38 E37 E35 E30 E29 E27 E20 E17 E15 E14"/>
    </vehicle>
    <vehicle id="621" depart="186.30">
        <route edges="gneE22 E53 E57 E58"/>
    </vehicle>
    <vehicle id="628" depart="188.40">
        <route edges="E36"/>
    </vehicle>
    <vehicle id="634" depart="190.20">
        <route edges="E54 E52 E50 E49 E47 E38 E37 E35 E30 E29 E27 E20 E17 E15 E14"/>
    </vehicle>
    <vehicle id="637" depart="191.10">
        <route edges="E25 E28 E31 E32 E36 E39 E45 E43"/>
    </vehicle>
    <vehicle id="641" depart="192.30">
        <route edges="E50 E49 E47 E38 E37 E35 E30 E29 E27 E20 E17"/>
    </vehicle>
    <vehicle id="642" depart="192.60">
        <route edges="E1 E4 E7"/>
    </vehicle>
    <vehicle id="648" depart="194.40">
        <route edges="E9 E7"/>
    </vehicle>
    <vehicle id="650" depart="195.00">
        <route edges="E37 E35 E30 E29 E27 E20 E17"/>
    </vehicle>
    <vehicle id="651" depart="195.30">
        <route edges="E5 E2"/>
    </vehicle>
    <vehicle id="656" depart="196.80">
        <route edges="E49 E47 E38 E37 E35 E30 E29 E27 E20 E17 E15 E11 E9 E7"/>
    </vehicle>
    <vehicle id="662" depart="198.60">
        <route edges="E18 E19 E21 E23"/>
    </vehicle>
    <vehicle id="664" depart="199.20">
        <route edges="E16 E18"/>
    </vehicle>
    <vehicle id="666" depart="199.80">
        <route edges="E10 E12 E16 E18 E19 E21 E28 E31 E32 E36 E39 E45 E43"/>
    </vehicle>
    <vehicle id="667" depart="200.10">
        <route edges="E2 E0"/>
    </vehicle>
    <vehicle id="674" depart="202.20">
        <route edges="E26 E25"/>
    </vehicle>
    <vehicle id="676" depart="202.80">
        <route edges="E33 E30 E29 E27 E20 E17 E15 E11 E9 E7"/>
    </vehicle>
    <vehicle id="680" depart="204.00">
        <route edges="E17 E15 E11 E9"/>
    </vehicle>
    <vehicle id="681" depart="204.30">
        <route edges="E39"/>
    </vehicle>
    <vehicle id="682" depart="204.60">
        <route edges="E37 E35 E34"/>
    </vehicle>
    <vehicle id="684" depart="205.20">
        <route edges="E16 E18 E19 E21 E28 E31 E32 E36 E39 E48 gneE22 E53 E55"/>
    </vehicle>
    <vehicle id="693" depart="207.90">
        <route edges="E46 E48 gneE22 E53"/>
    </vehicle>
    <vehicle id="695" depart="208.50">
        <route edges="E16 E18 E19"/>
    </vehicle>
    <vehicle id="698" depart="209.40">
        <route edges="E56 E52 E50 E49 E47 E38 E37 E35 E30 E29 E27 E20 E17 E15 E11 E9 E7"/>
    </vehicle>
    <vehicle id="699" depart="209.70">
        <route edges="E15 E11 E9 E2 E0"/>
    </vehicle>
    <vehicle id="711" depart="213.30">
        <route edges="E40 E42 E48 gneE22 E53 E57"/>
    </vehicle>
    <vehicle id="715" depart="214.50">
        <route edges="E44 E46 E48 gneE22"/>
    </vehicle>
    <vehicle id="718" depart="215.40">
        <route edges="E39 E48 gneE22 E53 E57 E58"/>
    </vehicle>
    <vehicle id="725" depart="217.50">