<?xml version="1.0" encoding="UTF-8"?>

<!-- generated on 2021-09-29 19:48:07 by Eclipse SUMO duarouter Version 1.9.2
<configuration xmlns:xsi="http://www.w3.org/2001/XMLSchema-instance" xsi:noNamespaceSchemaLocation="http://sumo.dlr.de/xsd/duarouterConfiguration.xsd">

    <input>
        <net-file value="/home/sonic/Desktop/nets/case06/intersection.net.xml"/>
        <route-files value="trips.trips.xml"/>
    </input>

    <output>
        <output-file value="intersection_random7.rou.xml"/>
        <alternatives-output value="intersection_random7.rou.alt.xml"/>
    </output>

    <time>
        <begin value="0"/>
        <end value="18000.0"/>
    </time>

    <report>
        <no-warnings value="true"/>
        <ignore-errors value="true"/>
        <no-step-log value="true"/>
    </report>

</configuration>
-->

<routes xmlns:xsi="http://www.w3.org/2001/XMLSchema-instance" xsi:noNamespaceSchemaLocation="http://sumo.dlr.de/xsd/routes_file.xsd">
    <vehicle id="2" depart="0.80">
        <route edges="E56 E52 E50 E49 E47 E38 E37 E35 E34"/>
    </vehicle>
    <vehicle id="9" depart="3.60">
        <route edges="E1 E4 E10 E12 E16 E18 E19 E21 E24"/>
    </vehicle>
    <vehicle id="18" depart="7.20">
        <route edges="E32 E36 E39 E45 E43"/>
    </vehicle>
    <vehicle id="19" depart="7.60">
        <route edges="E47 E41"/>
    </vehicle>
    <vehicle id="20" depart="8.00">
        <route edges="E56 E52 E50 E49 E47 E45 E43"/>
    </vehicle>
    <vehicle id="21" depart="8.40">
        <route edges="E52 E50"/>
    </vehicle>
    <vehicle id="24" depart="9.60">
        <route edges="E26 E25 E20 E17"/>
    </vehicle>
    <vehicle id="25" depart="10.00">
        <route edges="E1 E4 E10 E12 E16"/>
    </vehicle>
    <vehicle id="26" depart="10.40">
        <route edges="E35 E30 E29 E27 E24"/>
    </vehicle>
    <vehicle id="28" depart="11.20">
        <route edges="E4 E10 E12 E16 E18 E19 E21 E28 E31 E32 E36 E39"/>
    </vehicle>
    <vehicle id="31" depart="12.40">
        <route edges="E39 E48"/>
    </vehicle>
    <vehicle id="33" depart="13.20">
        <route edges="E42 E38 E37 E35 E30 E29 E27 E20 E17 E15 E11"/>
    </vehicle>
    <vehicle id="35" depart="14.00">
        <route edges="E40 E42 E38 E37 E35 E30 E29 E27 E20 E17 E15"/>
    </vehicle>
    <vehicle id="43" depart="17.20">
        <route edges="E28 E31 E32 E36 E39 E48 gneE22 E53 E57 E58"/>
    </vehicle>
    <vehicle id="46" depart="18.40">
        <route edges="E10 E12 E16 E18 E19"/>
    </vehicle>
    <vehicle id="47" depart="18.80">
        <route edges="E16 E18 E19 E21 E28 E31 E32 E34"/>
    </vehicle>
    <vehicle id="48" depart="19.20">
        <route edges="E19 E21 E28 E31 E32 E36 E39 E48 gneE22 E53 E57 E58"/>
    </vehicle>
    <vehicle id="53" depart="21.20">
        <route edges="E37 E35 E30 E29 E27 E20 E17 E15"/>
    </vehicle>
    <vehicle id="54" depart="21.60">
        <route edges="E19 E21 E28 E31 E32 E36 E39 E45"/>
    </vehicle>
    <vehicle id="59" depart="23.60">
        <route edges="E52 E50 E49 E47"/>
    </vehicle>
    <vehicle id="61" depart="24.40">
        <route edges="E16 E18 E19 E21 E28 E31 E32 E36 E39 E48 gneE22 E53 E57"/>
    </vehicle>
    <vehicle id="64" depart="25.60">
        <route edges="E17 E15"/>
    </vehicle>
    <vehicle id="65" depart="26.00">
        <route edges="E35 E30 E29 E27 E20 E17 E15"/>
    </vehicle>
    <vehicle id="67" depart="26.80">
        <route edges="E27 E20 E17"/>
    </vehicle>
    <vehicle id="69" depart="27.60">
        <route edges="E1 E4 E10 E12 E16 E18 E19 E21 E28 E31 E32 E36 E39"/>
    </vehicle>
    <vehicle id="71" depart="28.40">
        <route edges="E18 E19 E21 E28 E31 E32 E36 E39 E41"/>
    </vehicle>
    <vehicle id="73" depart="29.20">
        <route edges="E44 E46 E38 E37 E35 E30"/>
    </vehicle>
    <vehicle id="74" depart="29.60">
        <route edges="E4 E10 E12 E16 E18 E19 E21 E28 E31 E32 E36 E39 E45 E43"/>
    </vehicle>
    <vehicle id="75" depart="30.00">
        <route edges="E49 E47 E38 E37 E35"/>
    </vehicle>
    <vehicle id="79" depart="31.60">
        <route edges="E35 E30 E29"/>
    </vehicle>
    <vehicle id="84" depart="33.60">
        <route edges="E44 E46 E48 gneE22 E53"/>
    </vehicle>
    <vehicle id="87" depart="34.80">
        <route edges="E33 E30 E29 E27 E20 E17 E15"/>
    </vehicle>
    <vehicle id="91" depart="36.40">
        <route edges="E35"/>
    </vehicle>
    <vehicle id="92" depart="36.80">
        <route edges="E33 E30 E29 E27 E20 E17 E15 E11 E9 E7"/>
    </vehicle>
    <vehicle id="93" depart="37.20">
        <route edges="E54 E52 E50 E49 E47 E38 E37 E35 E30 E29 E27 E20"/>
    </vehicle>
    <vehicle id="95" depart="38.00">
        <route edges="E8 E2 E0"/>
    </vehicle>
    <vehicle id="96" depart="38.40">
        <route edges="E18 E19 E21 E28 E31 E32 E36"/>
    </vehicle>
    <vehicle id="99" depart="39.60">
        <route edges="E1 E4 E10 E12 E16 E18 E19 E21 E24"/>
    </vehicle>
    <vehicle id="103" depart="41.20">
        <route edges="E18 E19 E21 E28 E31 E32 E36"/>
    </vehicle>
    <vehicle id="105" depart="42.00">
        <route edges="E19 E21 E28 E31 E32 E36 E39 E45"/>
    </vehicle>
    <vehicle id="106" depart="42.40">
        <route edges="E40 E42 E38 E37 E35"/>
    </vehicle>
    <vehicle id="107" depart="42.80">
        <route edges="E19"/>
    </vehicle>
    <vehicle id="109" depart="43.60">
        <route edges="E52 E50 E49 E47 E38 E37 E35 E30 E29 E27 E20 E17 E15 E11 E9"/>
    </vehicle>
    <vehicle id="110" depart="44.00">
        <route edges="E38 E37 E35 E30 E29 E27 E20 E17 E15 E11 E9 E6"/>
    </vehicle>
    <vehicle id="113" depart="45.20">
        <route edges="E10 E12 E16 E18 E19 E21 E28 E31"/>
    </vehicle>
    <vehicle id="114" depart="45.60">
        <route edges="E8 E10 E12 E16 E18 E19 E21 E28 E31 E32 E36 E39 E41"/>
    </vehicle>
    <vehicle id="117" depart="46.80">
        <route edges="E50 E49 E47 E38 E37 E35 E30 E29 E27 E20 E17"/>
    </vehicle>
    <vehicle id="118" depart="47.20">
        <route edges="E5 E10 E12 E16 E18 E19 E21 E28 E31 E32 E36 E39 E45 E43"/>
    </vehicle>
    <vehicle id="122" depart="48.80">
        <route edges="E32 E36 E39"/>
    </vehicle>
    <vehicle id="123" depart="49.20">
        <route edges="E13 E16 E18 E19"/>
    </vehicle>
    <vehicle id="129" depart="51.60">
        <route edges="E44 E46 E38 E37 E35 E30 E29 E27 E23"/>
    </vehicle>
    <vehicle id="130" depart="52.00">
        <route edges="E42 E38 E37 E35 E30 E29 E27 E20 E17 E15"/>
    </vehicle>
    <vehicle id="135" depart="54.00">
        <route edges="gneE22 E53"/>
    </vehicle>
    <vehicle id="136" depart="54.40">
        <route edges="E5 E10 E12 E16 E18 E19 E21 E28"/>
    </vehicle>
    <vehicle id="137" depart="54.80">
        <route edges="E54 E52 E50 E49 E47"/>
    </vehicle>
    <vehicle id="140" depart="56.00">
        <route edges="E54 E52 E50 E49 E47 E38 E37 E35 E30 E29 E27 E20 E17 E15 E11 E9"/>
    </vehicle>
    <vehicle id="141" depart="56.40">
        <route edges="E21 E28 E31 E32 E36 E39 E48 gneE22 E53 E57"/>
    </vehicle>
    <vehicle id="144" depart="57.60">
        <route edges="E27 E23"/>
    </vehicle>
    <vehicle id="147" depart="58.80">
        <route edges="E37 E35 E30 E29 E27 E20"/>
    </vehicle>
    <vehicle id="148" depart="59.20">
        <route edges="E38 E37 E35 E30"/>
    </vehicle>
    <vehicle id="150" depart="60.00">
        <route edges="E12 E16 E18 E19 E21 E28 E31 E32 E36 E39 E48 gneE22 E53"/>
    </vehicle>
    <vehicle id="151" depart="60.40">
        <route edges="E46 E48 gneE22"/>
    </vehicle>
    <vehicle id="154" depart="61.60">
        <route edges="E40 E42 E38 E37"/>
    </vehicle>
    <vehicle id="155" depart="62.00">
        <route edges="E21 E28 E31 E32 E36 E39 E48 gneE22"/>
    </vehicle>
    <vehicle id="158" depart="63.20">
        <route edges="E4 E10 E12 E16 E18 E19 E21 E28 E31 E32 E36"/>
    </vehicle>
    <vehicle id="160" depart="64.00">
        <route edges="E46 E38 E37 E35 E30 E29 E27 E20 E17 E15"/>
    </vehicle>
    <vehicle id="161" depart="64.40">
        <route edges="E44 E46 E38 E37 E35 E30 E29 E27 E20 E17 E15 E11 E9"/>
    </vehicle>
    <vehicle id="165" depart="66.00">
        <route edges="E10 E12 E16 E18 E19 E21 E28 E31 E32 E34"/>
    </vehicle>
    <vehicle id="169" depart="67.60">
        <route edges="E54 E52 E50 E49 E47 E38 E37 E35 E30 E29 E27 E20 E17 E15 E11 E9 E6"/>
    </vehicle>
    <vehicle id="173" depart="69.20">
        <route edges="E35 E30 E29 E27 E20 E17"/>
    </vehicle>
    <vehicle id="174" depart="69.60">
        <route edges="E42 E38 E37 E35 E30 E29 E27 E20 E17 E15 E11"/>
    </vehicle>
    <vehicle id="176" depart="70.40">
        <route edges="E29 E27 E20 E17 E15 E11"/>
    </vehicle>
    <vehicle id="178" depart="71.20">
        <route edges="E21 E28 E31 E32 E36 E39"/>
    </vehicle>
    <vehicle id="180" depart="72.00">
        <route edges="E52 E50 E49 E47 E41"/>
    </vehicle>
    <vehicle id="181" depart="72.40">
        <route edges="E47 E38 E37 E35 E30 E29 E27 E20 E17"/>
    </vehicle>
    <vehicle id="182" depart="72.80">
        <route edges="E26 E25 E28 E31 E32 E36 E39 E45"/>
    </vehicle>
    <vehicle id="183" depart="73.20">
        <route edges="E33 E36 E39 E41"/>
    </vehicle>
    <vehicle id="185" depart="74.00">
        <route edges="E33 E36 E39 E48 gneE22"/>
    </vehicle>
    <vehicle id="192" depart="76.80">
        <route edges="E33 E30 E29 E27 E20 E17 E15 E11 E9 E6"/>
    </vehicle>
    <vehicle id="193" depart="77.20">
        <route edges="E19 E21 E28 E31 E32"/>
    </vehicle>
    <vehicle id="196" depart="78.40">
        <route edges="E12 E14"/>
    </vehicle>
    <vehicle id="198" depart="79.20">
        <route edges="E4 E7"/>
    </vehicle>
    <vehicle id="200" depart="80.00">
        <route edges="E26 E25 E28 E31"/>
    </vehicle>
    <vehicle id="201" depart="80.40">
        <route edges="E8 E10 E12 E16 E18 E19 E21 E28"/>
    </vehicle>
    <vehicle id="202" depart="80.80">
        <route edges="E21 E28 E31 E32 E36 E39 E45 E43"/>
    </vehicle>
    <vehicle id="203" depart="81.20">
        <route edges="E47 E45 E43"/>
    </vehicle>
    <vehicle id="204" depart="81.60">
        <route edges="E18 E19 E21 E23"/>
    </vehicle>
    <vehicle id="208" depart="83.20">
        <route edges="E22 E28 E31 E32 E36"/>
    </vehicle>
    <vehicle id="209" depart="83.60">
        <route edges="E50 E49 E47 E38"/>
    </vehicle>
    <vehicle id="211" depart="84.40">
        <route edges="E10 E12"/>
    </vehicle>
    <vehicle id="212" depart="84.80">
        <route edges="E20 E17 E15 E11 E9"/>
    </vehicle>
    <vehicle id="215" depart="86.00">
        <route edges="E50 E49 E47 E38 E37 E35 E30 E29 E27 E24"/>
    </vehicle>
    <vehicle id="216" depart="86.40">
        <route edges="E54 E52 E50 E49 E47 E38 E37 E35 E30 E29"/>
    </vehicle>
    <vehicle id="217" depart="86.80">
        <route edges="E22 E28 E31 E32 E34"/>
    </vehicle>
    <vehicle id="219" depart="87.60">
        <route edges="E44 E46 E38 E37 E35 E30 E29 E27 E20 E17 E15 E11 E9 E2 E0"/>
    </vehicle>
    <vehicle id="221" depart="88.40">
        <route edges="E33 E36 E39 E45"/>
    </vehicle>
    <vehicle id="222" depart="88.80">
        <route edges="E53 E57 E58"/>
    </vehicle>
    <vehicle id="224" depart="89.60">
        <route edges="E22 E28 E31 E32 E36 E39 E48"/>
    </vehicle>
    <vehicle id="225" depart="90.00">
        <route edges="E29"/>
    </vehicle>
    <vehicle id="227" depart="90.80">
        <route edges="E37 E35 E30"/>
    </vehicle>
    <vehicle id="228" depart="91.20">
        <route edges="E29 E27 E24"/>
    </vehicle>
    <vehicle id="232" depart="92.80">
        <route edges="E37 E35 E30 E29 E27 E20 E17 E15 E11 E9 E2 E0"/>
    </vehicle>
    <vehicle id="250" depart="100.00">
        <route edges="E28 E31 E32 E36 E39 E45 E43"/>
    </vehicle>
    <vehicle id="251" depart="100.40">
        <route edges="E56 E52 E50 E49 E47 E38 E37 E35 E30 E29 E27 E20 E17 E15 E11 E9 E7"/>
    </vehicle>
    <vehicle id="253" depart="101.20">
        <route edges="E44 E46 E41"/>
    </vehicle>
    <vehicle id="258" depart="103.20">
        <route edges="E32 E36 E39 E45"/>
    </vehicle>
    <vehicle id="261" depart="104.40">
        <route edges="E11 E9 E7"/>
    </vehicle>
    <vehicle id="262" depart="104.80">
        <route edges="E15 E11 E9 E2 E0"/>
    </vehicle>
    <vehicle id="263" depart="105.20">
        <route edges="E21 E28 E31 E32 E36 E39 E48 gneE22"/>
    </vehicle>
    <vehicle id="268" depart="107.20">
        <route edges="E49 E47 E38 E37 E35 E30 E29 E27 E20 E17 E15 E11 E9 E2"/>
    </vehicle>
    <vehicle id="270" depart="108.00">
        <route edges="E50 E49 E47 E45 E43"/>
    </vehicle>
    <vehicle id="272" depart="108.80">
        <route edges="E25 E20 E17 E15 E11"/>
    </vehicle>
    <vehicle id="274" depart="109.60">
        <route edges="E19 E21 E23"/>
    </vehicle>
    <vehicle id="275" depart="110.00">
        <route edges="E12 E16 E18 E19 E21 E28 E31 E32 E36 E39 E48 gneE22 E53 E57"/>
    </vehicle>
    <vehicle id="280" depart="112.00">
        <route edges="E12 E16 E18 E19 E21"/>
    </vehicle>
    <vehicle id="281" depart="112.40">
        <route edges="E1 E4 E10 E12 E16 E18 E19 E21 E28 E31 E32 E36 E39 E48 gneE22 E53 E57 E58"/>
    </vehicle>
    <vehicle id="282" depart="112.80">
        <route edges="E10 E12 E16 E18 E19 E21 E28 E31 E32 E36 E39 E45"/>
    </vehicle>
    <vehicle id="284" depart="113.60">
        <route edges="E16 E18 E19 E21 E28 E31 E32 E36 E39 E48 gneE22 E53 E57 E58"/>
    </vehicle>
    <vehicle id="286" depart="114.40">
        <route edges="E22 E28 E31 E32 E36 E39 E48"/>
    </vehicle>
    <vehicle id="289" depart="115.60">
        <route edges="E33 E30 E29 E27 E20 E17 E15 E11 E9"/>
    </vehicle>
    <vehicle id="290" depart="116.00">
        <route edges="E44 E46 E38 E37 E35 E30 E29 E27 E20 E17 E15"/>
    </vehicle>
    <vehicle id="291" depart="116.40">
        <route edges="E10 E12"/>
    </vehicle>
    <vehicle id="297" depart="118.80">
        <route edges="E42 E48 gneE22 E53 E57"/>
    </vehicle>
    <vehicle id="298" depart="119.20">
        <route edges="E28 E31 E32"/>
    </vehicle>
    <vehicle id="299" depart="119.60">
        <route edges="E13 E16 E18 E19 E21 E28 E31 E32 E36 E39 E48 gneE22 E53"/>
    </vehicle>
    <vehicle id="301" depart="120.40">
        <route edges="E47 E45"/>
    </vehicle>
    <vehicle id="306" depart="122.40">
        <route edges="E20 E17 E15"/>
    </vehicle>
    <vehicle id="309" depart="123.60">
        <route edges="E56 E52 E50 E49 E47 E38 E37 E35 E30 E29 E27 E20 E17"/>
    </vehicle>
    <vehicle id="313" depart="125.20">
        <route edges="E10 E12 E16 E18 E19 E21 E28 E31 E32 E36 E39"/>
    </vehicle>
    <vehicle id="318" depart="127.20">
        <route edges="E52"/>
    </vehicle>
    <vehicle id="321" depart="128.40">
        <route edges="E26 E25"/>
    </vehicle>
    <vehicle id="322" depart="128.80">
        <route edges="E16 E18 E19 E21 E28 E31 E32 E36 E39 E41"/>
    </vehicle>
    <vehicle id="323" depart="129.20">
        <route edges="E26 E25 E20 E17 E15 E11 E9 E2"/>
    </vehicle>
    <vehicle id="324" depart="129.60">
        <route edges="E30 E29"/>
    </vehicle>
    <vehicle id="325" depart="130.00">
        <route edges="E35 E30 E29 E27 E20 E17 E15"/>
    </vehicle>
    <vehicle id="327" depart="130.80">
        <route edges="E4 E10 E12 E16 E18 E19 E21 E28 E31 E32 E36 E39"/>
    </vehicle>
    <vehicle id="328" depart="131.20">
        <route edges="E42 E48 gneE22"/>
    </vehicle>
    <vehicle id="330" depart="132.00">
        <route edges="E1 E4 E10 E12 E16 E18 E19 E21 E28 E31 E32 E36 E39"/>
    </vehicle>
    <vehicle id="333" depart="133.20">
        <route edges="E38 E37 E35 E30 E29 E27 E20 E17 E15 E11 E9"/>
    </vehicle>
    <vehicle id="336" depart="134.40">
        <route edges="E10 E12 E16 E18 E19 E21 E28 E31 E32 E36 E39 E48 gneE22 E53 E55"/>
    </vehicle>
    <vehicle id="339" depart="135.60">
        <route edges="E33 E30 E29 E27 E20 E17 E15 E11 E9"/>
    </vehicle>
    <vehicle id="340" depart="136.00">
        <route edges="E18 E19 E21 E28 E31 E32 E36 E39 E48 gneE22"/>
    </vehicle>
    <vehicle id="345" depart="138.00">
        <route edges="E50 E49 E47"/>
    </vehicle>
    <vehicle id="347" depart="138.80">
        <route edges="E25 E28 E31 E32 E36 E39 E48 gneE22"/>
    </vehicle>
    <vehicle id="350" depart="140.00">
        <route edges="E44 E46 E38 E37 E35 E30 E29 E27 E20 E17"/>
    </vehicle>
    <vehicle id="351" depart="140.40">
        <route edges="E46 E38 E37 E35 E30 E29 E27 E20 E17"/>
    </vehicle>
    <vehicle id="352" depart="140.80">
        <route edges="E12 E16 E18"/>
    </vehicle>
    <vehicle id="354" depart="141.60">
        <route edges="E26 E25 E20 E17 E15 E11 E9"/>
    </vehicle>
    <vehicle id="357" depart="142.80">
        <route edges="E8 E10 E12 E16 E18 E19 E21"/>
    </vehicle>
    <vehicle id="358" depart="143.20">
        <route edges="E25 E28 E31 E32 E36 E39 E48 gneE22 E53"/>
    </vehicle>
    <vehicle id="360" depart="144.00">
        <route edges="E5 E10 E12 E16 E18 E19 E21 E28 E31 E32 E36 E39 E48 gneE22 E53 E55"/>
    </vehicle>
    <vehicle id="362" depart="144.80">
        <route edges="E12 E16 E18 E19"/>
    </vehicle>
    <vehicle id="367" depart="146.80">
        <route edges="E52 E50 E49 E47 E38"/>
    </vehicle>
    <vehicle id="370" depart="148.00">
        <route edges="E18 E19 E21 E28 E31 E32 E36 E39 E48"/>
    </vehicle>
    <vehicle id="375" depart="150.00">
        <route edges="E21 E28 E31 E32 E36"/>
    </vehicle>
    <vehicle id="381" depart="152.40">
        <route edges="E54 E57"/>
    </vehicle>
    <vehicle id="385" depart="154.00">
        <route edges="E27 E20 E17 E15 E14"/>
    </vehicle>
    <vehicle id="386" depart="154.40">
        <route edges="E40 E42 E38 E37"/>
    </vehicle>
    <vehicle id="387" depart="154.80">
        <route edges="E22 E28 E31 E32"/>
    </vehicle>
    <vehicle id="389" depart="155.60">
        <route edges="E56 E52 E50 E49 E47 E38 E37 E35 E30 E29 E27 E20 E17 E15"/>
    </vehicle>
    <vehicle id="390" depart="156.00">
        <route edges="E30 E29 E27 E20 E17 E15 E11 E9 E2 E0"/>
    </vehicle>
    <vehicle id="394" depart="157.60">
        <route edges="E42 E38 E37 E35 E30 E29 E27 E20 E17 E15 E11 E9 E2"/>
    </vehicle>
    <vehicle id="396" depart="158.40">
        <route edges="E8 E10 E12 E16 E18 E19 E21 E28 E31 E32 E36 E39 E48 gneE22 E53"/>
    </vehicle>
    <vehicle id="401" depart="160.40">
        <route edges="E18 E19 E21 E28 E31 E32 E36"/>
    </vehicle>
    <vehicle id="416" depart="166.40">
        <route edges="E32 E36 E39 E48 gneE22 E53"/>
    </vehicle>
    <vehicle id="417" depart="166.80">
        <route edges="E53 E57"/>
    </vehicle>
    <vehicle id="419" depart="167.60">
        <route edges="E25 E28 E31 E32 E36 E39 E48 gneE22 E53 E55"/>
    </vehicle>
    <vehicle id="424" depart="169.60">
        <route edges="E44 E46 E48"/>
    </vehicle>
    <vehicle id="427" depart="170.80">
        <route edges="E40 E42 E48 gneE22 E53 E57"/>
    </vehicle>
    <vehicle id="431" depart="172.40">
        <route edges="E50 E49 E47 E38 E37 E35 E30 E29 E27 E24"/>
    </vehicle>
    <vehicle id="432" depart="172.80">
        <route edges="E25 E20"/>
    </vehicle>
    <vehicle id="434" depart="173.60">
        <route edges="E46 E38 E37 E35 E30 E29 E27 E20 E17 E15 E11 E9 E7"/>
    </vehicle>
    <vehicle id="435" depart="174.00">
        <route edges="E31 E32 E36 E39 E48 gneE22 E53 E57 E58"/>
    </vehicle>
    <vehicle id="441" depart="176.40">
        <route edges="E19 E21 E28"/>
    </vehicle>
    <vehicle id="446" depart="178.40">
        <route edges="E46 E38 E37 E35 E30 E29 E27"/>
    </vehicle>
    <vehicle id="447" depart="178.80">
        <route edges="E39 E45"/>
    </vehicle>
    <vehicle id="449" depart="179.60">
        <route edges="E56 E55"/>
    </vehicle>
    <vehicle id="450" depart="180.00">
        <route edges="E20 E17"/>
    </vehicle>
    <vehicle id="454" depart="181.60">
        <route edges="E40 E42 E48 gneE22 E53 E55"/>
    </vehicle>
    <vehicle id="456" depart="182.40">
        <route edges="E47 E38 E37 E35 E30 E29 E27 E23"/>
    </vehicle>
    <vehicle id="458" depart="183.20">
        <route edges="E40 E42 E38 E37 E35 E30 E29 E27 E20 E17 E15 E11 E9"/>
    </vehicle>
    <vehicle id="459" depart="183.60">
        <route edges="E35 E30 E29 E27 E20 E17"/>
    </vehicle>
    <vehicle id="460" depart="184.00">
        <route edges="E50 E49 E47 E38 E37 E35 E30"/>
    </vehicle>
    <vehicle id="461" depart="184.40">
        <route edges="E54 E57"/>
    </vehicle>
    <vehicle id="462" depart="184.80">
        <route edges="E21 E23"/>
    </vehicle>
    <vehicle id="463" depart="185.20">
        <route edges="E54 E52 E50 E49 E47 E38 E37 E35 E30 E29 E27 E20 E17 E15 E11"/>
    </vehicle>
    <vehicle id="467" depart="186.80">
        <route edges="E56 E52 E50 E49 E47 E38 E37 E35 E30 E29 E27 E20 E17 E15 E14"/>
    </vehicle>
    <vehicle id="470" depart="188.00">
        <route edges="E38 E37 E35 E30 E29 E27 E23"/>
    </vehicle>
    <vehicle id="477" depart="190.80">
        <route edges="E31 E32 E36 E39 E48 gneE22 E53 E57 E58"/>
    </vehicle>
    <vehicle id="478" depart="191.20">
        <route edges="E29"/>
    </vehicle>
    <vehicle id="479" depart="191.60">
        <route edges="E20 E17 E15 E11"/>
    </vehicle>
    <vehicle id="482" depart="192.80">
        <route edges="E54 E52 E50 E49 E47 E38 E37 E35 E30 E29 E27 E24"/>
    </vehicle>
    <vehicle id="489" depart="195.60">
        <route edges="E30"/>
    </vehicle>
    <vehicle id="493" depart="197.20">
        <route edges="E50 E49 E47 E38 E37 E35 E30 E29 E27 E20 E17 E15 E11 E9 E6"/>
    </vehicle>
    <vehicle id="494" depart="197.60">
        <route edges="E38 E37 E35 E30 E29 E27 E20 E17 E15 E11 E9"/>
    </vehicle>
    <vehicle id="496" depart="198.40">
        <route edges="E37 E35 E30 E29 E27 E20 E17 E15 E14"/>
    </vehicle>
    <vehicle id="504" depart="201.60">
        <route edges="E56 E52 E50 E49 E47 E38 E37 E35 E30"/>
    </vehicle>
    <vehicle id="508" depart="203.20">
        <route edges="E33 E30 E29 E27 E20 E17 E15"/>
    </vehicle>
    <vehicle id="511" depart="204.40">
        <route edges="E48 gneE22 E53"/>
    </vehicle>
    <vehicle id="520" depart="208.00">
        <route edges="E33 E36 E39 E41"/>
    </vehicle>
    <vehicle id="522" depart="208.80">
        <route edges="E21 E28 E31 E32 E36 E39 E45 E43"/>
    </vehicle>
    <vehicle id="524" depart="209.60">
        <route edges="E46 E38 E37 E35 E30"/>
    </vehicle>
    <vehicle id="525" depart="210.00">
        <route edges="E56 E52 E50 E49 E47"/>
    </vehicle>
    <vehicle id="527" depart="210.80">
        <route edges="E30 E29 E27 E20 E17 E15 E11 E9 E2 E0"/>
    </vehicle>
    <vehicle id="532" depart="212.80">
        <route edges="E12 E16"/>
    </vehicle>
    <vehicle id="534" depart="213.60">
        <route edges="E36"/>
    </vehicle>
    <vehicle id="537" depart="214.80">
        <route edges="E44 E46 E38 E37 E35 E30 E29 E27 E20 E17 E15 E11 E9"/>
    </vehicle>
    <vehicle id="540" depart="216.00">
        <route edges="E39 E48 gneE22 E53 E55"/>
    </vehicle>
    <vehicle id="544" depart="217.60">
        <route edges="E29 E27 E20 E17 E15 E11 E9"/>
    </vehicle>
    <vehicle id="547" depart="218.80">
        <route edges="E40 E42 E38 E37 E35 E30 E29 E27 E20 E17 E15 E14"/>
    </vehicle>
    <vehicle id="549" depart="219.60">
        <route edges="E30 E29 E27 E20 E17 E15 E14"/>
    </vehicle>
    <vehicle id="550" depart="220.00">
        <route edges="E40 E42 E38 E37 E35 E30 E29"/>
    </vehicle>
    <vehicle id="551" depart="220.40">
        <route edges="E56 E52 E50 E49 E47 E38 E37 E35 E30 E29 E27 E20 E17 E15 E11 E9 E2 E0"/>
    </vehicle>
    <vehicle id="555" depart="222.00">
        <route edges="E13 E11 E9 E6"/>
    </vehicle>
    <vehicle id="556" depart="222.40">
        <route edges="E57 E58"/>
    </vehicle>
    <vehicle id="559" depart="223.60">
        <route edges="E46 E38 E37"/>
    </vehicle>
    <vehicle id="562" depart="224.80">
        <route edges="E18 E19 E21 E23"/>
    </vehicle>
    <vehicle id="563" depart="225.20">
        <route edges="E40 E42 E38 E37 E35 E30 E29 E27 E20 E17 E15 E11 E9"/>
    </vehicle>
    <vehicle id="572" depart="228.80">
        <route edges="E1 E4 E10 E12 E16 E18 E19 E21 E28 E31 E32 E36"/>
    </vehicle>
    <vehicle id="574" depart="229.60">
        <route edges="E46 E38 E37 E35 E30 E29 E27"/>
    </vehicle>
    <vehicle id="576" depart="230.40">
        <route edges="E30 E29 E27 E20 E17 E15"/>
    </vehicle>
    <vehicle id="578" depart="231.20">
        <route edges="E54 E52 E50 E49 E47 E38 E37 E35 E30 E29 E27 E20 E17 E15 E11 E9 E2 E0"/>
    </vehicle>
    <vehicle id="579" depart="231.60">
        <route edges="E47 E38 E37 E35 E30 E29 E27 E20 E17 E15"/>
    </vehicle>
    <vehicle id="586" depart="234.40">
        <route edges="E33 E36 E39 E48"/>
    </vehicle>
    <vehicle id="587" depart="234.80">
        <route edges="E38 E37 E35"/>
    </vehicle>
    <vehicle id="590" depart="236.00">
        <route edges="E38 E37 E35 E30 E29 E27 E20 E17"/>
    </vehicle>
    <vehicle id="593" depart="237.20">
        <route edges="E10 E12 E16 E18 E19 E21 E28 E31 E32 E36 E39 E41"/>
    </vehicle>
    <vehicle id="596" depart="238.40">
        <route edges="E49 E47"/>
    </vehicle>
    <vehicle id="598" depart="239.20">
        <route edges="E36 E39 E48 gneE22 E53 E57 E58"/>
    </vehicle>
    <vehicle id="601" depart="240.40">
        <route edges="E22 E28 E31 E32 E36 E39 E48 gneE22 E53"/>
    </vehicle>
    <vehicle id="604" depart="241.60">
        <route edges="E25 E28 E31 E32 E36 E39"/>
    </vehicle>
    <vehicle id="608" depart="243.20">
        <route edges="E5 E10 E12 E16 E18 E19 E21 E28 E31 E32 E34"/>
    </vehicle>
    <vehicle id="612" depart="244.80">
        <route edges="E20 E17 E15 E11 E9 E7"/>
    </vehicle>
    <vehicle id="613" depart="245.20">
        <route edges="E22 E20 E17"/>
    </vehicle>
    <vehicle id="619" depart="247.60">
        <route edges="E13 E16 E18 E19 E21 E28 E31 E32 E36 E39 E41"/>
    </vehicle>
    <vehicle id="620" depart="248.00">
        <route edges="E56 E52 E50 E49 E47 E38 E37 E35 E30 E29 E27 E20 E17 E15 E11 E9 E2"/>
    </vehicle>
    <vehicle id="623" depart="249.20">
        <route edges="E16 E18 E19 E21 E28 E31 E32 E36 E39 E48"/>
    </vehicle>
    <vehicle id="624" depart="249.60">
        <route edges="E56 E52 E50 E49 E47 E38 E37 E35 E30 E29 E27 E24"/>
    </vehicle>
    <vehicle id="627" depart="250.80">
        <route edges="E27 E20 E17 E15 E11 E9 E2"/>
    </vehicle>
    <vehicle id="628" depart="251.20">
        <route edges="E32"/>
    </vehicle>
    <vehicle id="631" depart="252.40">
        <route edges="E32 E36"/>
    </vehicle>
    <vehicle id="640" depart="256.00">
        <route edges="E42 E38 E37 E35 E30 E29 E27 E20 E17 E15 E11 E9 E2"/>
    </vehicle>
    <vehicle id="642" depart="256.80">
        <route edges="E16 E18 E19 E21 E24"/>
    </vehicle>
    <vehicle id="649" depart="259.60">
        <route edges="E54 E52 E50 E49 E47 E38 E37 E35 E30 E29 E27 E20 E17 E15 E11"/>
    </vehicle>
    <vehicle id="652" depart="260.80">
        <route edges="E22 E20 E17 E15 E11 E9 E7"/>
    </vehicle>
    <vehicle id="654" depart="261.60">
        <route edges="E21 E28 E31 E32 E36 E39 E48"/>
    </vehicle>
    <vehicle id="659" depart="263.60">
        <route edges="E4 E10 E12 E16 E18 E19 E21 E28 E31 E32 E36 E39 E48"/>
    </vehicle>
    <vehicle id="660" depart="264.00">
        <route edges="E13 E16 E18 E19 E21"/>
    </vehicle>
    <vehicle id="661" depart="264.40">
        <route edges="E54 E52 E50 E49 E47 E45"/>
    </vehicle>
    <vehicle id="662" depart="264.80">
        <route edges="E33 E36 E39 E48 gneE22 E53 E57"/>
    </vehicle>
    <vehicle id="666" depart="266.40">
        <route edges="E12 E16 E18 E19 E21 E28 E31 E32 E36 E39 E48 gneE22"/>
    </vehicle>
    <vehicle id="667" depart="266.80">
        <route edges="E26 E25 E20 E17 E15 E11 E9 E2 E0"/>
    </vehicle>
    <vehicle id="668" depart="267.20">
        <route edges="E33 E36 E39 E48"/>
    </vehicle>
    <vehicle id="672" depart="268.80">
        <route edges="E50 E49 E47 E38 E37 E35 E30 E29 E27 E20 E17 E15 E11 E9"/>
    </vehicle>
    <vehicle id="673" depart="269.20">
        <route edges="E27 E20 E17 E15 E14"/>
    </vehicle>
    <vehicle id="679" depart="271.60">
        <route edges="E50 E49 E47 E38 E37"/>
    </vehicle>
    <vehicle id="680" depart="272.00">
        <route edges="E29 E27 E20 E17 E15 E11"/>
    </vehicle>
    <vehicle id="684" depart="273.60">
        <route edges="E47 E41"/>
    </vehicle>
    <vehicle id="686" depart="274.40">
        <route edges="E28"/>
    </vehicle>
    <vehicle id="689" depart="275.60">
        <route edges="E50 E49 E47 E38 E37 E35 E30 E29 E27 E20"/>
    </vehicle>
    <vehicle id="692" depart="276.80">
        <route edges="E45 E43"/>
    </vehicle>
    <vehicle id="694" depart="277.60">
        <route edges="E1 E4 E10 E12 E16 E18 E19 E21 E28 E31"/>
    </vehicle>
    <vehicle id="695" depart="278.00">
        <route edges="E52 E50 E49 E47 E38 E37 E35 E30 E29 E27 E20 E17 E15 E11 E9 E7"/>
    </vehicle>
    <vehicle id="696" depart="278.40">
        <route edges="E22 E28 E31 E32 E36 E39 E48 gneE22 E53"/>
    </vehicle>
    <vehicle id="699" depart="279.60">
        <route edges="E50 E49 E47 E38 E37 E35 E30 E29 E27 E20 E17 E15 E11 E9 E6"/>
    </vehicle>
    <vehicle id="700" depart="280.00">
        <route edges="E4 E10 E12 E16 E18 E19 E21 E24"/>
    </vehicle>
    <vehicle id="704" depart="281.60">
        <route edges="E32 E36 E39 E45 E43"/>
    </vehicle>
    <vehicle id="705" depart="282.00">
        <route edges="E47 E38 E37 E35 E30 E29 E27 E20 E17 E15 E11 E9 E7"/>
    </vehicle>
    <vehicle id="707" depart="282.80">