<?xml version="1.0" encoding="UTF-8"?>

<!-- generated on 2021-09-29 19:48:23 by Eclipse SUMO duarouter Version 1.9.2
<configuration xmlns:xsi="http://www.w3.org/2001/XMLSchema-instance" xsi:noNamespaceSchemaLocation="http://sumo.dlr.de/xsd/duarouterConfiguration.xsd">

    <input>
        <net-file value="/home/sonic/Desktop/nets/case06/intersection.net.xml"/>
        <route-files value="trips.trips.xml"/>
    </input>

    <output>
        <output-file value="intersection_random15.rou.xml"/>
        <alternatives-output value="intersection_random15.rou.alt.xml"/>
    </output>

    <time>
        <begin value="0"/>
        <end value="18000.0"/>
    </time>

    <report>
        <no-warnings value="true"/>
        <ignore-errors value="true"/>
        <no-step-log value="true"/>
    </report>

</configuration>
-->

<routes xmlns:xsi="http://www.w3.org/2001/XMLSchema-instance" xsi:noNamespaceSchemaLocation="http://sumo.dlr.de/xsd/routes_file.xsd">
    <vehicle id="0" depart="0.00">
        <route edges="E12 E16 E18 E19 E21 E28 E31 E32 E36 E39 E48"/>
    </vehicle>
    <vehicle id="1" depart="0.40">
        <route edges="E27 E20 E17 E15 E11"/>
    </vehicle>
    <vehicle id="5" depart="2.00">
        <route edges="E56 E52 E50 E49 E47 E38 E37 E35 E30 E29 E27 E20 E17"/>
    </vehicle>
    <vehicle id="7" depart="2.80">
        <route edges="E49 E47 E38 E37 E35 E30 E29 E27 E20 E17 E15 E11 E9 E2"/>
    </vehicle>
    <vehicle id="8" depart="3.20">
        <route edges="E33 E36 E39 E48 gneE22"/>
    </vehicle>
    <vehicle id="9" depart="3.60">
        <route edges="E52 E50"/>
    </vehicle>
    <vehicle id="10" depart="4.00">
        <route edges="E56 E52 E50"/>
    </vehicle>
    <vehicle id="11" depart="4.40">
        <route edges="E50 E49 E47 E38 E37 E35 E30 E29 E27 E24"/>
    </vehicle>
    <vehicle id="13" depart="5.20">
        <route edges="E37 E35 E30 E29 E27"/>
    </vehicle>
    <vehicle id="18" depart="7.20">
        <route edges="E33 E30 E29 E27 E24"/>
    </vehicle>
    <vehicle id="19" depart="7.60">
        <route edges="E46 E38 E37"/>
    </vehicle>
    <vehicle id="22" depart="8.80">
        <route edges="E1 E4 E10 E12 E16 E18 E19 E21 E28 E31 E32 E36 E39 E48 gneE22 E53 E57"/>
    </vehicle>
    <vehicle id="24" depart="9.60">
        <route edges="E26 E25 E20 E17 E15 E11 E9 E6"/>
    </vehicle>
    <vehicle id="25" depart="10.00">
        <route edges="E44 E46 E38 E37 E35 E30 E29 E27"/>
    </vehicle>
    <vehicle id="29" depart="11.60">
        <route edges="E15 E11"/>
    </vehicle>
    <vehicle id="30" depart="12.00">
        <route edges="E47 E38"/>
    </vehicle>
    <vehicle id="36" depart="14.40">
        <route edges="E5 E10 E12 E16 E18 E19"/>
    </vehicle>
    <vehicle id="37" depart="14.80">
        <route edges="E27 E20 E17 E15 E11 E9 E2 E0"/>
    </vehicle>
    <vehicle id="42" depart="16.80">
        <route edges="E25 E20 E17 E15 E11 E9 E2"/>
    </vehicle>
    <vehicle id="44" depart="17.60">
        <route edges="E25 E28 E31 E32 E36 E39 E48 gneE22 E53 E55"/>
    </vehicle>
    <vehicle id="46" depart="18.40">
        <route edges="E10 E12 E16 E18 E19 E21 E28 E31 E32 E36 E39 E48 gneE22"/>
    </vehicle>
    <vehicle id="50" depart="20.00">
        <route edges="E44 E46 E38 E37 E35 E30 E29 E27 E20 E17 E15 E11 E9"/>
    </vehicle>
    <vehicle id="58" depart="23.20">
        <route edges="E52 E50 E49 E47 E38 E37 E35 E30 E29 E27 E20 E17 E15 E11 E9 E7"/>
    </vehicle>
    <vehicle id="60" depart="24.00">
        <route edges="E30 E29 E27 E20 E17 E15 E11 E9"/>
    </vehicle>
    <vehicle id="64" depart="25.60">
        <route edges="E47 E38 E37 E35 E30 E29 E27 E20 E17"/>
    </vehicle>
    <vehicle id="66" depart="26.40">
        <route edges="E42 E38 E37 E35 E30 E29 E27 E20 E17 E15 E11 E9"/>
    </vehicle>
    <vehicle id="70" depart="28.00">
        <route edges="E32 E36 E39 E48"/>
    </vehicle>
    <vehicle id="71" depart="28.40">
        <route edges="E49 E47 E45 E43"/>
    </vehicle>
    <vehicle id="72" depart="28.80">
        <route edges="E26 E25 E20 E17 E15 E11 E9 E2"/>
    </vehicle>
    <vehicle id="77" depart="30.80">
        <route edges="E4 E10 E12 E16 E18 E19 E21 E28 E31 E32 E36 E39"/>
    </vehicle>
    <vehicle id="79" depart="31.60">
        <route edges="E40 E42"/>
    </vehicle>
    <vehicle id="82" depart="32.80">
        <route edges="E33 E36 E39 E45"/>
    </vehicle>
    <vehicle id="86" depart="34.40">
        <route edges="E5 E10 E12 E16 E18 E19 E21 E28 E31 E32 E36 E39 E48 gneE22 E53 E55"/>
    </vehicle>
    <vehicle id="87" depart="34.80">
        <route edges="E20 E17 E15"/>
    </vehicle>
    <vehicle id="89" depart="35.60">
        <route edges="E30 E29 E27 E20 E17 E15 E11 E9"/>
    </vehicle>
    <vehicle id="91" depart="36.40">
        <route edges="E33 E30"/>
    </vehicle>
    <vehicle id="92" depart="36.80">
        <route edges="E28 E31 E32 E36 E39 E45"/>
    </vehicle>
    <vehicle id="93" depart="37.20">
        <route edges="E12 E16 E18 E19"/>
    </vehicle>
    <vehicle id="94" depart="37.60">
        <route edges="E26 E25 E28 E31 E32 E36 E39"/>
    </vehicle>
    <vehicle id="95" depart="38.00">
        <route edges="E26 E25 E20 E17 E15 E11 E9 E6"/>
    </vehicle>
    <vehicle id="96" depart="38.40">
        <route edges="E44 E46 E48 gneE22 E53 E55"/>
    </vehicle>
    <vehicle id="100" depart="40.00">
        <route edges="E37 E35 E30 E29 E27"/>
    </vehicle>
    <vehicle id="103" depart="41.20">
        <route edges="E49 E47 E38 E37 E35"/>
    </vehicle>
    <vehicle id="105" depart="42.00">
        <route edges="E17 E15 E11 E9 E6"/>
    </vehicle>
    <vehicle id="108" depart="43.20">
        <route edges="E44 E46 E48"/>
    </vehicle>
    <vehicle id="111" depart="44.40">
        <route edges="E42 E48 gneE22 E53 E55"/>
    </vehicle>
    <vehicle id="117" depart="46.80">
        <route edges="E46 E38 E37 E35 E30 E29 E27 E20"/>
    </vehicle>
    <vehicle id="127" depart="50.80">
        <route edges="E26 E25 E28 E31 E32 E36 E39 E48 gneE22 E53 E57"/>
    </vehicle>
    <vehicle id="131" depart="52.40">
        <route edges="E26 E25 E20"/>
    </vehicle>
    <vehicle id="133" depart="53.20">
        <route edges="E26 E25"/>
    </vehicle>
    <vehicle id="135" depart="54.00">
        <route edges="E22 E28"/>
    </vehicle>
    <vehicle id="140" depart="56.00">
        <route edges="E40 E42 E38 E37 E35 E30 E29 E27 E20 E17 E15 E11 E9 E2"/>
    </vehicle>
    <vehicle id="141" depart="56.40">
        <route edges="E56 E52 E50 E49 E47 E41"/>
    </vehicle>
    <vehicle id="142" depart="56.80">
        <route edges="E13 E11 E9 E6"/>
    </vehicle>
    <vehicle id="145" depart="58.00">
        <route edges="E26 E25 E20 E17 E15 E11 E9 E2 E0"/>
    </vehicle>
    <vehicle id="146" depart="58.40">
        <route edges="E26 E25 E28 E31 E32 E36 E39 E48 gneE22 E53"/>
    </vehicle>
    <vehicle id="147" depart="58.80">
        <route edges="E33 E30 E29 E27"/>
    </vehicle>
    <vehicle id="150" depart="60.00">
        <route edges="E10 E12 E16 E18 E19 E21 E28 E31 E32 E36 E39 E45"/>
    </vehicle>
    <vehicle id="152" depart="60.80">
        <route edges="E29 E27 E20 E17"/>
    </vehicle>
    <vehicle id="154" depart="61.60">
        <route edges="E37 E35 E30 E29 E27 E23"/>
    </vehicle>
    <vehicle id="155" depart="62.00">
        <route edges="E4 E10 E12 E16 E18 E19 E21 E28 E31"/>
    </vehicle>
    <vehicle id="157" depart="62.80">
        <route edges="E50 E49 E47 E45 E43"/>
    </vehicle>
    <vehicle id="158" depart="63.20">
        <route edges="E29 E27 E20 E17 E15 E11"/>
    </vehicle>
    <vehicle id="160" depart="64.00">
        <route edges="E1 E4 E10"/>
    </vehicle>
    <vehicle id="163" depart="65.20">
        <route edges="E4 E10 E12 E14"/>
    </vehicle>
    <vehicle id="166" depart="66.40">
        <route edges="E37 E35 E30 E29 E27 E20"/>
    </vehicle>
    <vehicle id="167" depart="66.80">
        <route edges="E39 E48 gneE22 E53 E55"/>
    </vehicle>
    <vehicle id="174" depart="69.60">
        <route edges="E25 E28"/>
    </vehicle>
    <vehicle id="175" depart="70.00">
        <route edges="E36 E39 E48 gneE22 E53 E57 E58"/>
    </vehicle>
    <vehicle id="176" depart="70.40">
        <route edges="E40 E42 E48"/>
    </vehicle>
    <vehicle id="179" depart="71.60">
        <route edges="E35 E30 E29"/>
    </vehicle>
    <vehicle id="181" depart="72.40">
        <route edges="E4 E10 E12"/>
    </vehicle>
    <vehicle id="182" depart="72.80">
        <route edges="E15 E11 E9 E2"/>
    </vehicle>
    <vehicle id="184" depart="73.60">
        <route edges="E21 E28 E31 E32 E36 E39 E48 gneE22 E53 E57 E58"/>
    </vehicle>
    <vehicle id="186" depart="74.40">
        <route edges="E56 E52 E50 E49 E47 E38 E37 E35 E30 E29 E27 E20 E17 E15 E11 E9"/>
    </vehicle>
    <vehicle id="187" depart="74.80">
        <route edges="E13 E16 E18 E19 E21 E28 E31 E32 E36 E39 E48"/>
    </vehicle>
    <vehicle id="188" depart="75.20">
        <route edges="E32 E36 E39 E48"/>
    </vehicle>
    <vehicle id="189" depart="75.60">
        <route edges="E18 E19"/>
    </vehicle>
    <vehicle id="191" depart="76.40">
        <route edges="E25 E28 E31 E32 E36 E39 E48 gneE22 E53"/>
    </vehicle>
    <vehicle id="192" depart="76.80">
        <route edges="E30 E29 E27 E24"/>
    </vehicle>
    <vehicle id="193" depart="77.20">
        <route edges="E40 E42 E38 E37 E35 E30 E29 E27 E20 E17 E15 E11"/>
    </vehicle>
    <vehicle id="194" depart="77.60">
        <route edges="E32 E36 E39 E41"/>
    </vehicle>
    <vehicle id="206" depart="82.40">
        <route edges="E54 E52 E50 E49 E47 E38 E37 E35 E30 E29 E27 E23"/>
    </vehicle>
    <vehicle id="207" depart="82.80">
        <route edges="E50 E49 E47 E38 E37 E35 E30 E29 E27 E20"/>
    </vehicle>
    <vehicle id="208" depart="83.20">
        <route edges="E12 E16 E18 E19 E21 E28 E31 E32 E36 E39 E48"/>
    </vehicle>
    <vehicle id="209" depart="83.60">
        <route edges="E46 E48 gneE22 E53"/>
    </vehicle>
    <vehicle id="210" depart="84.00">
        <route edges="E5 E10 E12 E16 E18 E19 E21 E28 E31 E32 E36"/>
    </vehicle>
    <vehicle id="213" depart="85.20">
        <route edges="E49 E47 E41"/>
    </vehicle>
    <vehicle id="214" depart="85.60">
        <route edges="E27 E20"/>
    </vehicle>
    <vehicle id="215" depart="86.00">
        <route edges="E4 E10 E12 E16 E18 E19 E21 E28 E31 E32 E36 E39 E48 gneE22"/>
    </vehicle>
    <vehicle id="218" depart="87.20">
        <route edges="E1 E4 E10 E12 E16 E18 E19 E21 E28 E31 E32 E36 E39 E45"/>
    </vehicle>
    <vehicle id="222" depart="88.80">
        <route edges="E4 E10 E12"/>
    </vehicle>
    <vehicle id="233" depart="93.20">
        <route edges="E4 E10 E12 E16 E18 E19 E21 E28 E31 E32 E36 E39 E48 gneE22 E53"/>
    </vehicle>
    <vehicle id="236" depart="94.40">
        <route edges="E8 E10 E12 E16 E18 E19 E21 E28 E31 E32"/>
    </vehicle>
    <vehicle id="243" depart="97.20">
        <route edges="E52 E50 E49 E47 E41"/>
    </vehicle>
    <vehicle id="245" depart="98.00">
        <route edges="E39 E48 gneE22 E53"/>
    </vehicle>
    <vehicle id="247" depart="98.80">
        <route edges="E56 E52 E50 E49 E47 E38 E37 E35 E30 E29 E27 E20 E17 E15"/>
    </vehicle>
    <vehicle id="248" depart="99.20">
        <route edges="E56 E52 E50 E49 E47 E38"/>
    </vehicle>
    <vehicle id="249" depart="99.60">
        <route edges="E27 E23"/>
    </vehicle>
    <vehicle id="250" depart="100.00">
        <route edges="E47 E38 E37 E35 E34"/>
    </vehicle>
    <vehicle id="256" depart="102.40">
        <route edges="E13 E16"/>
    </vehicle>
    <vehicle id="258" depart="103.20">
        <route edges="E12 E16 E18 E19"/>
    </vehicle>
    <vehicle id="259" depart="103.60">
        <route edges="E33 E30 E29 E27 E24"/>
    </vehicle>
    <vehicle id="261" depart="104.40">
        <route edges="E46 E38 E37 E35 E30 E29 E27 E20 E17 E15"/>
    </vehicle>
    <vehicle id="263" depart="105.20">
        <route edges="E29 E27 E20 E17 E15 E11"/>
    </vehicle>
    <vehicle id="266" depart="106.40">
        <route edges="E56 E52 E50 E49 E47 E38 E37 E35 E30 E29 E27 E20 E17 E15 E11 E9 E2"/>
    </vehicle>
    <vehicle id="267" depart="106.80">
        <route edges="E13 E11"/>
    </vehicle>
    <vehicle id="272" depart="108.80">
        <route edges="E15"/>
    </vehicle>
    <vehicle id="276" depart="110.40">
        <route edges="E40 E42 E38 E37 E35 E30 E29 E27 E23"/>
    </vehicle>
    <vehicle id="277" depart="110.80">
        <route edges="E42 E38 E37 E35 E30 E29 E27 E20 E17"/>
    </vehicle>
    <vehicle id="282" depart="112.80">
        <route edges="E13 E11 E9 E6"/>
    </vehicle>
    <vehicle id="284" depart="113.60">
        <route edges="E37 E35 E30"/>
    </vehicle>
    <vehicle id="285" depart="114.00">
        <route edges="E38 E37 E35 E30 E29 E27 E20 E17 E15 E11 E9 E2 E0"/>
    </vehicle>
    <vehicle id="287" depart="114.80">
        <route edges="E47 E38 E37 E35 E30 E29 E27 E20 E17 E15 E11 E9 E6"/>
    </vehicle>
    <vehicle id="288" depart="115.20">
        <route edges="E26 E25 E28 E31 E32 E36 E39 E48 gneE22 E53"/>
    </vehicle>
    <vehicle id="289" depart="115.60">
        <route edges="E13 E16 E18 E19 E21 E28 E31 E32 E34"/>
    </vehicle>
    <vehicle id="292" depart="116.80">
        <route edges="E13 E16 E18 E19 E21 E28 E31 E32 E36 E39 E48 gneE22 E53 E57 E58"/>
    </vehicle>
    <vehicle id="293" depart="117.20">
        <route edges="E42 E48 gneE22 E53 E55"/>
    </vehicle>
    <vehicle id="296" depart="118.40">
        <route edges="E40 E42 E45 E43"/>
    </vehicle>
    <vehicle id="297" depart="118.80">
        <route edges="E56 E52 E50 E49 E47 E38 E37"/>
    </vehicle>
    <vehicle id="298" depart="119.20">
        <route edges="E31 E32 E36 E39 E41"/>
    </vehicle>
    <vehicle id="299" depart="119.60">
        <route edges="E5 E10 E12 E16 E18 E19 E21 E28 E31 E32"/>
    </vehicle>
    <vehicle id="308" depart="123.20">
        <route edges="E53 E57"/>
    </vehicle>
    <vehicle id="309" depart="123.60">
        <route edges="E30 E29"/>
    </vehicle>
    <vehicle id="313" depart="125.20">
        <route edges="E50 E49 E47 E38 E37 E35 E30 E29 E27 E20 E17 E15"/>
    </vehicle>
    <vehicle id="319" depart="127.60">
        <route edges="E16 E18 E19 E21 E28 E31 E32 E36 E39 E48 gneE22 E53 E57"/>
    </vehicle>
    <vehicle id="321" depart="128.40">
        <route edges="E50 E49 E47 E38 E37 E35 E30 E29 E27 E20 E17 E15"/>
    </vehicle>
    <vehicle id="325" depart="130.00">
        <route edges="E49 E47 E38 E37 E35 E30 E29 E27 E20 E17 E15 E11 E9 E7"/>
    </vehicle>
    <vehicle id="331" depart="132.40">
        <route edges="E30 E29 E27 E20 E17 E15 E14"/>
    </vehicle>
    <vehicle id="337" depart="134.80">
        <route edges="E11 E9 E7"/>
    </vehicle>
    <vehicle id="340" depart="136.00">
        <route edges="E38 E37 E35 E30 E29 E27"/>
    </vehicle>
    <vehicle id="341" depart="136.40">
        <route edges="E30 E29 E27 E20 E17 E15 E11 E9 E2 E0"/>
    </vehicle>
    <vehicle id="343" depart="137.20">
        <route edges="E52 E50 E49 E47 E38 E37 E35 E30 E29 E27 E20 E17 E15 E11 E9 E2 E0"/>
    </vehicle>
    <vehicle id="346" depart="138.40">
        <route edges="E38 E37 E35 E30 E29 E27 E20 E17 E15 E11"/>
    </vehicle>
    <vehicle id="347" depart="138.80">
        <route edges="E21 E28 E31 E32 E36 E39 E48 gneE22 E53"/>
    </vehicle>
    <vehicle id="351" depart="140.40">
        <route edges="E20 E17 E15 E14"/>
    </vehicle>
    <vehicle id="355" depart="142.00">
        <route edges="E1 E4 E10 E12 E16 E18 E19 E21 E28 E31 E32 E36 E39 E45 E43"/>
    </vehicle>
    <vehicle id="356" depart="142.40">
        <route edges="E21 E28 E31 E32 E36 E39 E48 gneE22 E53 E57 E58"/>
    </vehicle>
    <vehicle id="358" depart="143.20">
        <route edges="E40 E42 E38"/>
    </vehicle>
    <vehicle id="361" depart="144.40">
        <route edges="E4 E10 E12 E16 E18 E19 E21 E28 E31 E32 E36 E39 E48 gneE22 E53 E57 E58"/>
    </vehicle>
    <vehicle id="362" depart="144.80">
        <route edges="E57"/>
    </vehicle>
    <vehicle id="365" depart="146.00">
        <route edges="E38 E37 E35 E30"/>
    </vehicle>
    <vehicle id="376" depart="150.40">
        <route edges="E11 E9"/>
    </vehicle>
    <vehicle id="379" depart="151.60">
        <route edges="E36 E39 E45 E43"/>
    </vehicle>
    <vehicle id="384" depart="153.60">
        <route edges="E5 E10 E12 E16 E18 E19 E21 E28 E31 E32 E36 E39 E41"/>
    </vehicle>
    <vehicle id="388" depart="155.20">
        <route edges="E10 E12 E16 E18 E19 E21 E28 E31 E32 E36 E39"/>
    </vehicle>
    <vehicle id="394" depart="157.60">
        <route edges="E30 E29 E27 E20 E17 E15 E11 E9 E7"/>
    </vehicle>
    <vehicle id="396" depart="158.40">
        <route edges="E44 E46 E48 gneE22 E53 E57 E58"/>
    </vehicle>
    <vehicle id="399" depart="159.60">
        <route edges="E13 E11 E9"/>
    </vehicle>
    <vehicle id="400" depart="160.00">
        <route edges="E33 E30 E29 E27 E20 E17 E15 E11 E9 E2"/>
    </vehicle>
    <vehicle id="409" depart="163.60">
        <route edges="E54 E52 E50 E49 E47 E38 E37 E35 E30 E29 E27 E24"/>
    </vehicle>
    <vehicle id="410" depart="164.00">
        <route edges="E13 E16 E18 E19 E21 E28"/>
    </vehicle>
    <vehicle id="412" depart="164.80">
        <route edges="E49 E47"/>
    </vehicle>
    <vehicle id="415" depart="166.00">
        <route edges="E47 E38 E37 E35 E30 E29 E27 E20 E17 E15 E14"/>
    </vehicle>
    <vehicle id="417" depart="166.80">
        <route edges="E13 E16 E18 E19 E21 E28 E31 E32 E36 E39"/>
    </vehicle>
    <vehicle id="420" depart="168.00">
        <route edges="E46"/>
    </vehicle>
    <vehicle id="424" depart="169.60">
        <route edges="E53 E57 E58"/>
    </vehicle>
    <vehicle id="425" depart="170.00">
        <route edges="E22 E20 E17 E15"/>
    </vehicle>
    <vehicle id="426" depart="170.40">
        <route edges="E4"/>
    </vehicle>
    <vehicle id="429" depart="171.60">
        <route edges="E1 E4 E10 E12 E16 E18 E19 E21 E28 E31 E32 E36 E39 E48 gneE22 E53 E55"/>
    </vehicle>
    <vehicle id="431" depart="172.40">
        <route edges="E33 E30 E29 E27 E20"/>
    </vehicle>
    <vehicle id="432" depart="172.80">
        <route edges="E22 E20 E17 E15 E11 E9 E2"/>
    </vehicle>
    <vehicle id="436" depart="174.40">
        <route edges="E28 E31 E32 E36 E39 E48 gneE22 E53 E55"/>
    </vehicle>
    <vehicle id="438" depart="175.20">
        <route edges="E48 gneE22 E53 E57 E58"/>
    </vehicle>
    <vehicle id="439" depart="175.60">
        <route edges="E42 E38 E37 E35 E30 E29 E27 E20 E17 E15 E11 E9"/>
    </vehicle>
    <vehicle id="440" depart="176.00">
        <route edges="E50 E49"/>
    </vehicle>
    <vehicle id="443" depart="177.20">
        <route edges="E4 E10 E12 E16 E18 E19 E21"/>
    </vehicle>
    <vehicle id="453" depart="181.20">
        <route edges="E32 E36 E39 E45"/>
    </vehicle>
    <vehicle id="454" depart="181.60">
        <route edges="E26 E25 E28"/>
    </vehicle>
    <vehicle id="455" depart="182.00">
        <route edges="E9"/>
    </vehicle>
    <vehicle id="457" depart="182.80">
        <route edges="E4 E10 E12 E16 E18 E19 E21 E28"/>
    </vehicle>
    <vehicle id="460" depart="184.00">
        <route edges="E21 E28 E31 E32 E36 E39 E48 gneE22 E53 E57 E58"/>
    </vehicle>
    <vehicle id="465" depart="186.00">
        <route edges="E19 E21 E28 E31 E32 E36 E39 E48 gneE22 E53"/>
    </vehicle>
    <vehicle id="468" depart="187.20">
        <route edges="E44 E46 E48 gneE22 E53"/>
    </vehicle>
    <vehicle id="470" depart="188.00">
        <route edges="E47 E38 E37 E35 E30 E29 E27 E23"/>
    </vehicle>
    <vehicle id="473" depart="189.20">
        <route edges="E19 E21 E28 E31 E32 E36 E39 E48"/>
    </vehicle>
    <vehicle id="474" depart="189.60">
        <route edges="E33 E36"/>
    </vehicle>
    <vehicle id="475" depart="190.00">
        <route edges="E28 E31 E32 E36 E39"/>
    </vehicle>
    <vehicle id="480" depart="192.00">
        <route edges="E40 E42 E48 gneE22"/>
    </vehicle>
    <vehicle id="481" depart="192.40">
        <route edges="E22 E20 E17 E15 E14"/>
    </vehicle>
    <vehicle id="483" depart="193.20">
        <route edges="E20 E17 E15 E11"/>
    </vehicle>
    <vehicle id="489" depart="195.60">
        <route edges="E47 E38 E37 E35 E30 E29 E27 E20 E17 E15 E11 E9"/>
    </vehicle>
    <vehicle id="490" depart="196.00">
        <route edges="E15"/>
    </vehicle>
    <vehicle id="492" depart="196.80">
        <route edges="E5 E10 E12"/>
    </vehicle>
    <vehicle id="495" depart="198.00">
        <route edges="E39 E48 gneE22 E53 E57"/>
    </vehicle>
    <vehicle id="498" depart="199.20">
        <route edges="E56 E52 E50 E49 E47 E38 E37 E35 E30 E29 E27 E23"/>
    </vehicle>
    <vehicle id="500" depart="200.00">
        <route edges="E25 E28 E31 E32"/>
    </vehicle>
    <vehicle id="507" depart="202.80">
        <route edges="E22 E28"/>
    </vehicle>
    <vehicle id="508" depart="203.20">
        <route edges="E29 E27 E24"/>
    </vehicle>
    <vehicle id="510" depart="204.00">
        <route edges="E10"/>
    </vehicle>
    <vehicle id="512" depart="204.80">
        <route edges="E42 E48 gneE22"/>
    </vehicle>
    <vehicle id="515" depart="206.00">
        <route edges="E12 E16 E18 E19 E21 E28 E31 E32 E36 E39 E45"/>
    </vehicle>
    <vehicle id="518" depart="207.20">
        <route edges="E50 E49 E47 E38 E37 E35 E30 E29 E27 E20 E17 E15 E11 E9 E2"/>
    </vehicle>
    <vehicle id="519" depart="207.60">
        <route edges="E52 E50 E49 E47 E45"/>
    </vehicle>
    <vehicle id="521" depart="208.40">
        <route edges="E32"/>
    </vehicle>
    <vehicle id="527" depart="210.80">
        <route edges="E26 E25 E20 E17 E15 E11 E9 E7"/>
    </vehicle>
    <vehicle id="530" depart="212.00">
        <route edges="E25 E20"/>
    </vehicle>
    <vehicle id="531" depart="212.40">
        <route edges="E26 E25 E20"/>
    </vehicle>
    <vehicle id="533" depart="213.20">
        <route edges="E35 E30 E29 E27 E24"/>
    </vehicle>
    <vehicle id="534" depart="213.60">
        <route edges="E49 E47 E38 E37 E35"/>
    </vehicle>
    <vehicle id="536" depart="214.40">
        <route edges="E21 E23"/>
    </vehicle>
    <vehicle id="541" depart="216.40">
        <route edges="E52 E50 E49 E47 E41"/>
    </vehicle>
    <vehicle id="543" depart="217.20">
        <route edges="E12 E16"/>
    </vehicle>
    <vehicle id="549" depart="219.60">
        <route edges="E40 E42 E38 E37"/>
    </vehicle>
    <vehicle id="555" depart="222.00">
        <route edges="E4 E10 E12 E16 E18 E19 E21 E24"/>
    </vehicle>
    <vehicle id="561" depart="224.40">
        <route edges="E20 E17 E15 E11 E9"/>
    </vehicle>
    <vehicle id="562" depart="224.80">
        <route edges="E4 E10 E12 E16 E18 E19 E21 E28"/>
    </vehicle>
    <vehicle id="564" depart="225.60">
        <route edges="E28 E31 E32 E36"/>
    </vehicle>
    <vehicle id="566" depart="226.40">
        <route edges="E12 E16 E18 E19 E21 E28 E31 E32 E36 E39 E45"/>
    </vehicle>
    <vehicle id="570" depart="228.00">
        <route edges="E32 E36 E39 E41"/>
    </vehicle>
    <vehicle id="572" depart="228.80">
        <route edges="E54 E52 E50 E49 E47 E38 E37 E35 E30 E29 E27 E23"/>
    </vehicle>
    <vehicle id="575" depart="230.00">
        <route edges="E31 E32"/>
    </vehicle>
    <vehicle id="577" depart="230.80">
        <route edges="E25 E28 E31 E32 E36 E39 E48 gneE22 E53 E55"/>
    </vehicle>
    <vehicle id="579" depart="231.60">
        <route edges="E38 E37 E35 E30 E29 E27 E20 E17 E15 E11 E9 E2 E0"/>
    </vehicle>
    <vehicle id="580" depart="232.00">
        <route edges="E33 E30 E29 E27"/>
    </vehicle>
    <vehicle id="583" depart="233.20">
        <route edges="E22 E28 E31 E32 E36"/>
    </vehicle>
    <vehicle id="588" depart="235.20">
        <route edges="E42 E38 E37 E35 E30 E29"/>
    </vehicle>
    <vehicle id="589" depart="235.60">
        <route edges="E46 E38 E37 E35 E30 E29 E27 E20 E17 E15 E11 E9"/>
    </vehicle>
    <vehicle id="590" depart="236.00">
        <route edges="E4 E10 E12 E16 E18"/>
    </vehicle>
    <vehicle id="591" depart="236.40">
        <route edges="E36 E39 E48 gneE22 E53 E55"/>
    </vehicle>
    <vehicle id="592" depart="236.80">
        <route edges="E33 E30 E29 E27 E20 E17 E15 E11 E9 E2 E0"/>
    </vehicle>
    <vehicle id="594" depart="237.60">
        <route edges="E4 E10 E12 E16 E18 E19 E21 E28 E31 E32 E36 E39 E45"/>
    </vehicle>
    <vehicle id="599" depart="239.60">
        <route edges="E38 E37 E35 E30 E29 E27 E20 E17 E15 E14"/>
    </vehicle>
    <vehicle id="600" depart="240.00">
        <route edges="E53 E55"/>
    </vehicle>
    <vehicle id="602" depart="240.80">
        <route edges="E39 E48 gneE22 E53 E57"/>
    </vehicle>
    <vehicle id="603" depart="241.20">
        <route edges="E46 E48 gneE22 E53 E57 E58"/>
    </vehicle>
    <vehicle id="607" depart="242.80">
        <route edges="E40 E42 E38 E37 E35 E30 E29 E27 E20 E17 E15"/>
    </vehicle>
    <vehicle id="608" depart="243.20">
        <route edges="E54 E52 E50 E49 E47 E38 E37 E35 E30 E29 E27 E23"/>
    </vehicle>
    <vehicle id="616" depart="246.40">
        <route edges="E49 E47 E38 E37 E35 E30 E29 E27 E20 E17 E15 E11 E9"/>
    </vehicle>
    <vehicle id="619" depart="247.60">
        <route edges="E54 E52 E50 E49 E47 E38"/>
    </vehicle>
    <vehicle id="629" depart="251.60">
        <route edges="E26 E25 E20 E17 E15 E11 E9 E2 E0"/>
    </vehicle>
    <vehicle id="631" depart="252.40">
        <route edges="E5 E10 E12 E16 E18 E19 E21 E28 E31 E32 E34"/>
    </vehicle>
    <vehicle id="633" depart="253.20">
        <route edges="E4 E10 E12 E16 E18 E19 E21 E28"/>
    </vehicle>
    <vehicle id="634" depart="253.60">
        <route edges="E46 E38 E37 E35 E30 E29"/>
    </vehicle>
    <vehicle id="635" depart="254.00">
        <route edges="E50 E49 E47 E38 E37 E35 E30 E29 E27 E20 E17 E15 E11 E9"/>
    </vehicle>
    <vehicle id="638" depart="255.20">
        <route edges="E42 E38 E37"/>
    </vehicle>
    <vehicle id="641" depart="256.40">
        <route edges="E28 E31 E32 E36"/>
    </vehicle>
    <vehicle id="643" depart="257.20">
        <route edges="E8 E10 E12 E16 E18 E19 E21 E28 E31 E32 E36 E39"/>
    </vehicle>
    <vehicle id="647" depart="258.80">
        <route edges="E5 E10 E12"/>
    </vehicle>
    <vehicle id="652" depart="260.80">
        <route edges="E37 E35 E30 E29 E27"/>
    </vehicle>
    <vehicle id="654" depart="261.60">
        <route edges="E44 E46 E38"/>
    </vehicle>
    <vehicle id="664" depart="265.60">
        <route edges="E8 E10"/>
    </vehicle>
    <vehicle id="669" depart="267.60">
        <route edges="E38 E37 E35 E30 E29"/>
    </vehicle>
    <vehicle id="674" depart="269.60">
        <route edges="E10 E12 E16 E18 E19 E21 E28 E31 E32 E36 E39 E45 E43"/>
    </vehicle>
    <vehicle id="675" depart="270.00">
        <route edges="E54 E52 E50 E49 E47 E38 E37 E35 E30 E29 E27 E23"/>
    </vehicle>
    <vehicle id="677" depart="270.80">
        <route edges="E38 E37 E35 E30 E29 E27 E20 E17 E15"/>
    </vehicle>
    <vehicle id="678" depart="271.20">
        <route edges="gneE22"/>
    </vehicle>
    <vehicle id="680" depart="272.00">
        <route edges="E10 E12 E14"/>
    </vehicle>
    <vehicle id="684" depart="273.60">
        <route edges="E30"/>
    </vehicle>
    <vehicle id="686" depart="274.40">
        <route edges="E37 E35 E30"/>
    </vehicle>
    <vehicle id="687" depart="274.80">
        <route edges="E40 E42 E38 E37 E35 E30 E29 E27 E20 E17 E15 E14"/>
    </vehicle>
    <vehicle id="691" depart="276.40">
        <route edges="E30 E29 E27 E20 E17 E15 E11 E9 E6"/>
    </vehicle>
    <vehicle id="694" depart="277.60">
        <route edges="E46 E38 E37 E35 E30 E29 E27 E20 E17 E15 E11 E9 E2"/>
    </vehicle>
    <vehicle id="695" depart="278.00">
        <route edges="E13 E16 E18 E19 E21 E28 E31 E32 E36 E39"/>
    </vehicle>
    <vehicle id="696" depart="278.40">
        <route edges="E40 E42 E38 E37 E35 E34"/>
    </vehicle>
    <vehicle id="698" depart="279.20">
        <route edges="E47 E38 E37 E35 E30 E29 E27 E24"/>
    </vehicle>
    <vehicle id="701" depart="280.40">
        <route edges="E32 E34"/>
    </vehicle>
    <vehicle id="705" depart="282.00">
        <route edges="E37 E35 E30 E29 E27 E20 E17 E15 E11 E9 E2"/>
    </vehicle>
    <vehicle id="709" depart="283.60">
        <route edges="E19 E21 E28 E31 E32 E36 E39 E45 E43"/>
    </vehicle>
    <vehicle id="710" depart="284.00">
        <route edges="E37 E35 E30 E29 E27 E20 E17 E15"/>
    </vehicle>
    <vehicle id="711" depart="284.40">
        <route edges="E22 E28 E31 E32 E36"/>
    </vehicle>
    <vehicle id="712" depart="284.80">
        <route edges="E1 E4 E10 E12"/>
    </vehicle>
    <vehicle id="716" depart="286.40">
        <route edges="E54 E52 E50 E49 E47 E38 E37 E35 E30 E29 E27 E20 E17 E15 E11 E9 E2"/>
    </vehicle>
    <vehicle id="718" depart="287.20">
        <route edges="E13 E11 E9 E6"/>
    </vehicle>
    <vehicle id="719" depart="287.60">
        <route edges="E22 E28 E31 E32 E34"/>
    </vehicle>
    <vehicle id="721" depart="288.40">
        <route edges="E10 E12 E16 E18 E19 E21 E28 E31 E32"/>
    </vehicle>
    <vehicle id="728" depart="291.20">
        <route edges="E19 E21 E28 E31 E32 E36 E39 E48 gneE22 E53 E57"/>
    </vehicle>
    <vehicle id="729" depart="291.60">
        <route edges="E4 E10 E12 E16 E18 E19 E21"/>
    </vehicle>
    <vehicle id="730" depart="292.00">
        <route edges="E15 E11 E9 E2 E0"/>
    </vehicle>
    <vehicle id="731" depart="292.40">
        <route edges="E10 E12 E16 E18 E19 E21 E28 E31 E32 E36"/>
    </vehicle>
    <vehicle id="732" depart="292.80">
        <route edges="E44 E46 E38 E37 E35 E30 E29 E27 E20 E17 E15 E11 E9 E2"/>
    </vehicle>
    <vehicle id="735" depart="294.00">
        <route edges="E33 E36 E39 E41"/>
    </vehicle>
    <vehicle id="737" depart="294.80">