<?xml version="1.0" encoding="UTF-8"?>

<!-- generated on 2021-09-29 19:49:27 by Eclipse SUMO duarouter Version 1.9.2
<configuration xmlns:xsi="http://www.w3.org/2001/XMLSchema-instance" xsi:noNamespaceSchemaLocation="http://sumo.dlr.de/xsd/duarouterConfiguration.xsd">

    <input>
        <net-file value="/home/sonic/Desktop/nets/case06/intersection.net.xml"/>
        <route-files value="trips.trips.xml"/>
    </input>

    <output>
        <output-file value="intersection_random47.rou.xml"/>
        <alternatives-output value="intersection_random47.rou.alt.xml"/>
    </output>

    <time>
        <begin value="0"/>
        <end value="18000.0"/>
    </time>

    <report>
        <no-warnings value="true"/>
        <ignore-errors value="true"/>
        <no-step-log value="true"/>
    </report>

</configuration>
-->

<routes xmlns:xsi="http://www.w3.org/2001/XMLSchema-instance" xsi:noNamespaceSchemaLocation="http://sumo.dlr.de/xsd/routes_file.xsd">
    <vehicle id="1" depart="0.40">
        <route edges="E4 E10 E12 E16 E18 E19"/>
    </vehicle>
    <vehicle id="7" depart="2.80">
        <route edges="E16 E18 E19 E21 E28 E31 E32 E36 E39 E48 gneE22"/>
    </vehicle>
    <vehicle id="8" depart="3.20">
        <route edges="E36 E39 E41"/>
    </vehicle>
    <vehicle id="11" depart="4.40">
        <route edges="E44 E46 E48 gneE22 E53"/>
    </vehicle>
    <vehicle id="12" depart="4.80">
        <route edges="E18 E19 E21 E28 E31 E32 E36 E39 E48 gneE22 E53 E57"/>
    </vehicle>
    <vehicle id="15" depart="6.00">
        <route edges="E18 E19 E21 E28 E31 E32 E36 E39 E48 gneE22 E53 E57"/>
    </vehicle>
    <vehicle id="16" depart="6.40">
        <route edges="E22 E28 E31 E32 E36 E39"/>
    </vehicle>
    <vehicle id="24" depart="9.60">
        <route edges="E32 E36 E39 E48"/>
    </vehicle>
    <vehicle id="25" depart="10.00">
        <route edges="E18 E19 E21 E23"/>
    </vehicle>
    <vehicle id="26" depart="10.40">
        <route edges="E33 E36 E39 E45 E43"/>
    </vehicle>
    <vehicle id="28" depart="11.20">
        <route edges="E28 E31"/>
    </vehicle>
    <vehicle id="31" depart="12.40">
        <route edges="E10 E12 E16 E18 E19 E21"/>
    </vehicle>
    <vehicle id="33" depart="13.20">
        <route edges="E56 E52 E50 E49 E47 E38 E37 E35 E30 E29 E27 E20 E17 E15 E11 E9"/>
    </vehicle>
    <vehicle id="36" depart="14.40">
        <route edges="E22 E28 E31 E32 E36 E39 E48"/>
    </vehicle>
    <vehicle id="42" depart="16.80">
        <route edges="E10 E12 E16 E18 E19"/>
    </vehicle>
    <vehicle id="44" depart="17.60">
        <route edges="E53"/>
    </vehicle>
    <vehicle id="48" depart="19.20">
        <route edges="E25 E23"/>
    </vehicle>
    <vehicle id="50" depart="20.00">
        <route edges="E13 E11 E9 E2"/>
    </vehicle>
    <vehicle id="51" depart="20.40">
        <route edges="E18 E19 E21 E28 E31 E32 E36"/>
    </vehicle>
    <vehicle id="52" depart="20.80">
        <route edges="E37 E35 E30 E29 E27"/>
    </vehicle>
    <vehicle id="55" depart="22.00">
        <route edges="E49 E47 E38 E37 E35 E34"/>
    </vehicle>
    <vehicle id="56" depart="22.40">
        <route edges="E39 E45"/>
    </vehicle>
    <vehicle id="60" depart="24.00">
        <route edges="E1 E4 E10 E12 E16 E18"/>
    </vehicle>
    <vehicle id="65" depart="26.00">
        <route edges="E15 E14"/>
    </vehicle>
    <vehicle id="66" depart="26.40">
        <route edges="E39 E48"/>
    </vehicle>
    <vehicle id="73" depart="29.20">
        <route edges="E49 E47 E38 E37 E35 E30 E29 E27 E24"/>
    </vehicle>
    <vehicle id="79" depart="31.60">
        <route edges="E29 E27"/>
    </vehicle>
    <vehicle id="80" depart="32.00">
        <route edges="E40 E42 E48"/>
    </vehicle>
    <vehicle id="81" depart="32.40">
        <route edges="E36 E39"/>
    </vehicle>
    <vehicle id="82" depart="32.80">
        <route edges="E36 E39 E48 gneE22 E53 E57"/>
    </vehicle>
    <vehicle id="83" depart="33.20">
        <route edges="E50 E49 E47"/>
    </vehicle>
    <vehicle id="87" depart="34.80">
        <route edges="E54 E52 E50 E49 E47 E38 E37 E35 E30 E29 E27 E24"/>
    </vehicle>
    <vehicle id="92" depart="36.80">
        <route edges="E40 E42 E38"/>
    </vehicle>
    <vehicle id="93" depart="37.20">
        <route edges="E42 E48 gneE22 E53 E55"/>
    </vehicle>
    <vehicle id="94" depart="37.60">
        <route edges="E56 E52 E50 E49 E47 E38 E37 E35 E30 E29 E27 E20 E17 E15 E11 E9 E7"/>
    </vehicle>
    <vehicle id="97" depart="38.80">
        <route edges="E10 E12 E16 E18 E19 E21 E23"/>
    </vehicle>
    <vehicle id="98" depart="39.20">
        <route edges="E19 E21"/>
    </vehicle>
    <vehicle id="99" depart="39.60">
        <route edges="E17"/>
    </vehicle>
    <vehicle id="100" depart="40.00">
        <route edges="E4 E10 E12 E16 E18 E19 E21 E28 E31 E32 E36 E39 E48 gneE22 E53 E55"/>
    </vehicle>
    <vehicle id="105" depart="42.00">
        <route edges="E19 E21 E28 E31 E32 E36 E39"/>
    </vehicle>
    <vehicle id="107" depart="42.80">
        <route edges="E5 E10 E12 E16 E18 E19 E21 E28 E31 E32 E36 E39 E48 gneE22 E53 E57"/>
    </vehicle>
    <vehicle id="111" depart="44.40">
        <route edges="E10 E12 E16 E18 E19 E21 E28 E31 E32 E36"/>
    </vehicle>
    <vehicle id="113" depart="45.20">
        <route edges="E29 E27 E23"/>
    </vehicle>
    <vehicle id="115" depart="46.00">
        <route edges="E4 E10 E12 E16 E18 E19 E21 E28 E31 E32 E36 E39 E48"/>
    </vehicle>
    <vehicle id="116" depart="46.40">
        <route edges="E17"/>
    </vehicle>
    <vehicle id="122" depart="48.80">
        <route edges="E12 E16 E18 E19 E21 E28 E31 E32 E36 E39 E48 gneE22 E53"/>
    </vehicle>
    <vehicle id="124" depart="49.60">
        <route edges="gneE22"/>
    </vehicle>
    <vehicle id="127" depart="50.80">
        <route edges="E28 E31 E32 E36 E39 E48 gneE22 E53 E57 E58"/>
    </vehicle>
    <vehicle id="128" depart="51.20">
        <route edges="E29 E27 E20 E17 E15 E11 E9"/>
    </vehicle>
    <vehicle id="131" depart="52.40">
        <route edges="E20 E17"/>
    </vehicle>
    <vehicle id="137" depart="54.80">
        <route edges="E54 E52 E50 E49"/>
    </vehicle>
    <vehicle id="138" depart="55.20">
        <route edges="E47 E38 E37 E35 E30 E29 E27 E20 E17 E15 E11 E9 E2 E0"/>
    </vehicle>
    <vehicle id="140" depart="56.00">
        <route edges="E26 E25 E20 E17 E15 E11 E9 E2 E0"/>
    </vehicle>
    <vehicle id="144" depart="57.60">
        <route edges="E39 E48 gneE22 E53"/>
    </vehicle>
    <vehicle id="148" depart="59.20">
        <route edges="E52 E50 E49"/>
    </vehicle>
    <vehicle id="152" depart="60.80">
        <route edges="E47 E38 E37 E35"/>
    </vehicle>
    <vehicle id="153" depart="61.20">
        <route edges="E45"/>
    </vehicle>
    <vehicle id="154" depart="61.60">
        <route edges="E4 E10 E12 E16 E18 E19 E21 E28 E31 E32 E36 E39 E41"/>
    </vehicle>
    <vehicle id="155" depart="62.00">
        <route edges="E52 E50 E49 E47 E38 E37 E35 E30 E29 E27 E20 E17 E15 E11"/>
    </vehicle>
    <vehicle id="157" depart="62.80">
        <route edges="E4 E10 E12 E16 E18 E19 E21 E28 E31 E32 E36 E39 E45 E43"/>
    </vehicle>
    <vehicle id="159" depart="63.60">
        <route edges="E49 E47 E38 E37 E35 E30 E29 E27 E20 E17 E15 E11 E9 E6"/>
    </vehicle>
    <vehicle id="163" depart="65.20">
        <route edges="E18 E19 E21 E28"/>
    </vehicle>
    <vehicle id="165" depart="66.00">
        <route edges="E33 E36 E39 E41"/>
    </vehicle>
    <vehicle id="171" depart="68.40">
        <route edges="E42 E48 gneE22"/>
    </vehicle>
    <vehicle id="175" depart="70.00">
        <route edges="E16 E18 E19 E21 E28 E31 E32 E36 E39 E41"/>
    </vehicle>
    <vehicle id="177" depart="70.80">
        <route edges="E16 E18 E19"/>
    </vehicle>
    <vehicle id="178" depart="71.20">
        <route edges="E30 E29 E27 E20 E17 E15 E11 E9 E7"/>
    </vehicle>
    <vehicle id="185" depart="74.00">
        <route edges="E31 E32 E34"/>
    </vehicle>
    <vehicle id="186" depart="74.40">
        <route edges="E31 E32 E36 E39 E45 E43"/>
    </vehicle>
    <vehicle id="189" depart="75.60">
        <route edges="E10 E12 E16"/>
    </vehicle>
    <vehicle id="191" depart="76.40">
        <route edges="E5 E10 E12 E16 E18 E19 E21 E28"/>
    </vehicle>
    <vehicle id="192" depart="76.80">
        <route edges="E52 E50 E49 E47 E38 E37 E35 E30 E29 E27 E20 E17 E15 E14"/>
    </vehicle>
    <vehicle id="197" depart="78.80">
        <route edges="E17 E15 E11 E9 E6"/>
    </vehicle>
    <vehicle id="198" depart="79.20">
        <route edges="E42 E38 E37 E35 E30 E29 E27 E20 E17 E15 E11 E9 E2"/>
    </vehicle>
    <vehicle id="203" depart="81.20">
        <route edges="E2 E0"/>
    </vehicle>
    <vehicle id="206" depart="82.40">
        <route edges="E54 E52 E50 E49 E47 E38 E37 E35 E30 E29 E27 E20 E17 E15 E11 E9 E6"/>
    </vehicle>
    <vehicle id="207" depart="82.80">
        <route edges="E48 gneE22 E53 E57 E58"/>
    </vehicle>
    <vehicle id="208" depart="83.20">
        <route edges="E16 E18"/>
    </vehicle>
    <vehicle id="209" depart="83.60">
        <route edges="E37 E35 E30 E29 E27 E20 E17 E15 E11 E9"/>
    </vehicle>
    <vehicle id="211" depart="84.40">
        <route edges="E42 E38 E37 E35 E30 E29 E27 E20 E17 E15"/>
    </vehicle>
    <vehicle id="212" depart="84.80">
        <route edges="E42 E48 gneE22 E53 E55"/>
    </vehicle>
    <vehicle id="213" depart="85.20">
        <route edges="E16 E18 E19 E21 E24"/>
    </vehicle>
    <vehicle id="214" depart="85.60">
        <route edges="E52 E50"/>
    </vehicle>
    <vehicle id="215" depart="86.00">
        <route edges="E28 E31 E32 E36 E39"/>
    </vehicle>
    <vehicle id="217" depart="86.80">
        <route edges="E10 E12 E16 E18 E19 E21 E28 E31 E32 E36 E39 E48 gneE22 E53 E57"/>
    </vehicle>
    <vehicle id="221" depart="88.40">
        <route edges="E27 E20 E17 E15 E11 E9 E6"/>
    </vehicle>
    <vehicle id="222" depart="88.80">
        <route edges="E49 E47 E38 E37 E35 E30 E29 E27 E24"/>
    </vehicle>
    <vehicle id="223" depart="89.20">
        <route edges="E13 E16 E18 E19 E21 E28 E31 E32 E36 E39 E48 gneE22 E53"/>
    </vehicle>
    <vehicle id="225" depart="90.00">
        <route edges="E40 E42 E38 E37 E35 E30 E29 E27 E20 E17 E15 E11 E9"/>
    </vehicle>
    <vehicle id="226" depart="90.40">
        <route edges="E1 E4 E10 E12 E16 E18 E19 E21 E28"/>
    </vehicle>
    <vehicle id="228" depart="91.20">
        <route edges="E52 E50 E49 E47 E38 E37 E35 E30 E29 E27 E20 E17"/>
    </vehicle>
    <vehicle id="232" depart="92.80">
        <route edges="E37 E35 E30 E29 E27"/>
    </vehicle>
    <vehicle id="235" depart="94.00">
        <route edges="E38 E37 E35 E30 E29 E27 E20"/>
    </vehicle>
    <vehicle id="239" depart="95.60">
        <route edges="E39"/>
    </vehicle>
    <vehicle id="240" depart="96.00">
        <route edges="E40 E42 E48 gneE22"/>
    </vehicle>
    <vehicle id="243" depart="97.20">
        <route edges="E47 E38 E37 E35 E30 E29 E27 E20"/>
    </vehicle>
    <vehicle id="245" depart="98.00">
        <route edges="E54 E52 E50 E49 E47 E38 E37 E35 E30 E29 E27 E20"/>
    </vehicle>
    <vehicle id="247" depart="98.80">
        <route edges="E22 E20 E17 E15 E11 E9"/>
    </vehicle>
    <vehicle id="249" depart="99.60">
        <route edges="E46 E38 E37 E35 E30 E29 E27 E20 E17 E15 E11"/>
    </vehicle>
    <vehicle id="251" depart="100.40">
        <route edges="E19 E21 E28 E31 E32 E34"/>
    </vehicle>
    <vehicle id="255" depart="102.00">
        <route edges="E22 E28 E31"/>
    </vehicle>
    <vehicle id="257" depart="102.80">
        <route edges="E37 E35 E34"/>
    </vehicle>
    <vehicle id="260" depart="104.00">
        <route edges="E13 E16 E18 E19 E21 E28 E31 E32"/>
    </vehicle>
    <vehicle id="261" depart="104.40">
        <route edges="E22 E28 E31 E32 E36 E39 E48 gneE22 E53"/>
    </vehicle>
    <vehicle id="265" depart="106.00">
        <route edges="E50 E49 E47 E38 E37 E35 E30 E29 E27 E20 E17 E15 E11 E9"/>
    </vehicle>
    <vehicle id="272" depart="108.80">
        <route edges="E49 E47 E38 E37 E35 E30 E29 E27 E24"/>
    </vehicle>
    <vehicle id="276" depart="110.40">
        <route edges="E21 E28 E31"/>
    </vehicle>
    <vehicle id="277" depart="110.80">
        <route edges="E42 E45"/>
    </vehicle>
    <vehicle id="278" depart="111.20">
        <route edges="E21 E28 E31 E32 E36 E39 E41"/>
    </vehicle>
    <vehicle id="279" depart="111.60">
        <route edges="E12 E16 E18 E19 E21 E28 E31"/>
    </vehicle>
    <vehicle id="281" depart="112.40">
        <route edges="E50 E49 E47 E38 E37 E35 E34"/>
    </vehicle>
    <vehicle id="283" depart="113.20">
        <route edges="E29 E27 E20 E17 E15 E11 E9 E2"/>
    </vehicle>
    <vehicle id="286" depart="114.40">
        <route edges="E5 E10 E12 E16 E18 E19 E21 E28 E31 E32"/>
    </vehicle>
    <vehicle id="287" depart="114.80">
        <route edges="E27 E20 E17 E15 E11 E9 E7"/>
    </vehicle>
    <vehicle id="291" depart="116.40">
        <route edges="E52 E50 E49 E47 E38 E37 E35 E30 E29 E27 E20 E17 E15 E11 E9 E2"/>
    </vehicle>
    <vehicle id="294" depart="117.60">
        <route edges="E31 E32 E36 E39 E41"/>
    </vehicle>
    <vehicle id="300" depart="120.00">
        <route edges="E31 E32"/>
    </vehicle>
    <vehicle id="302" depart="120.80">
        <route edges="E46 E38 E37 E35 E30 E29 E27 E20 E17 E15 E14"/>
    </vehicle>
    <vehicle id="304" depart="121.60">
        <route edges="E38 E37 E35 E30 E29 E27"/>
    </vehicle>
    <vehicle id="305" depart="122.00">
        <route edges="E54 E52 E50 E49 E47 E38 E37 E35 E30 E29 E27 E24"/>
    </vehicle>
    <vehicle id="307" depart="122.80">
        <route edges="E50 E49 E47 E38 E37 E35 E30 E29 E27 E20 E17 E15"/>
    </vehicle>
    <vehicle id="311" depart="124.40">
        <route edges="E38 E37 E35 E30 E29 E27"/>
    </vehicle>
    <vehicle id="312" depart="124.80">
        <route edges="E50 E49 E47 E38 E37 E35 E30 E29 E27 E20 E17 E15 E11 E9 E2 E0"/>
    </vehicle>
    <vehicle id="315" depart="126.00">
        <route edges="E31"/>
    </vehicle>
    <vehicle id="318" depart="127.20">
        <route edges="E54 E52 E50 E49 E47 E38 E37 E35 E34"/>
    </vehicle>
    <vehicle id="324" depart="129.60">
        <route edges="E44 E46 E38 E37 E35 E30 E29 E27"/>
    </vehicle>
    <vehicle id="327" depart="130.80">
        <route edges="E36 E39 E48"/>
    </vehicle>
    <vehicle id="329" depart="131.60">
        <route edges="E39 E48 gneE22"/>
    </vehicle>
    <vehicle id="331" depart="132.40">
        <route edges="E22 E28 E31 E32 E36 E39 E45 E43"/>
    </vehicle>
    <vehicle id="332" depart="132.80">
        <route edges="E5 E10 E12 E16 E18 E19"/>
    </vehicle>
    <vehicle id="334" depart="133.60">
        <route edges="E13 E11 E9 E7"/>
    </vehicle>
    <vehicle id="335" depart="134.00">
        <route edges="E30 E29 E27"/>
    </vehicle>
    <vehicle id="338" depart="135.20">
        <route edges="E5 E10 E12 E16 E18 E19 E21"/>
    </vehicle>
    <vehicle id="348" depart="139.20">
        <route edges="E26 E25 E28 E31 E32 E36"/>
    </vehicle>
    <vehicle id="352" depart="140.80">
        <route edges="E56 E52 E50 E49 E47 E38 E37 E35 E30 E29 E27 E20 E17 E15 E11 E9 E2"/>
    </vehicle>
    <vehicle id="354" depart="141.60">
        <route edges="E4 E10 E12 E16 E18 E19 E21 E28 E31 E32 E36"/>
    </vehicle>
    <vehicle id="357" depart="142.80">
        <route edges="E46"/>
    </vehicle>
    <vehicle id="358" depart="143.20">
        <route edges="E19"/>
    </vehicle>
    <vehicle id="359" depart="143.60">
        <route edges="E47 E38 E37 E35 E30 E29 E27 E20"/>
    </vehicle>
    <vehicle id="362" depart="144.80">
        <route edges="E38 E37 E35 E30 E29 E27 E20 E17 E15 E11"/>
    </vehicle>
    <vehicle id="364" depart="145.60">
        <route edges="E4 E10 E12 E16 E18 E19 E21 E24"/>
    </vehicle>
    <vehicle id="366" depart="146.40">
        <route edges="E33 E36"/>
    </vehicle>
    <vehicle id="372" depart="148.80">
        <route edges="E29 E27 E20 E17 E15 E11 E9 E7"/>
    </vehicle>
    <vehicle id="373" depart="149.20">
        <route edges="E48 gneE22 E53 E57 E58"/>
    </vehicle>
    <vehicle id="374" depart="149.60">
        <route edges="E47 E38 E37 E35 E30 E29 E27 E20 E17 E15 E11 E9 E2"/>
    </vehicle>
    <vehicle id="375" depart="150.00">
        <route edges="E50 E49 E47 E38 E37 E35 E30 E29 E27 E20"/>
    </vehicle>
    <vehicle id="377" depart="150.80">
        <route edges="E44 E46 E38 E37 E35 E30 E29 E27 E20 E17"/>
    </vehicle>
    <vehicle id="379" depart="151.60">
        <route edges="E19 E21 E28 E31 E32 E36 E39"/>
    </vehicle>
    <vehicle id="380" depart="152.00">
        <route edges="E8 E10 E12 E16 E18"/>
    </vehicle>
    <vehicle id="383" depart="153.20">
        <route edges="E13 E11 E9 E2"/>
    </vehicle>
    <vehicle id="385" depart="154.00">
        <route edges="E19 E21 E28 E31 E32 E36"/>
    </vehicle>
    <vehicle id="386" depart="154.40">
        <route edges="E22 E28 E31 E32 E36"/>
    </vehicle>
    <vehicle id="387" depart="154.80">
        <route edges="E37 E35"/>
    </vehicle>
    <vehicle id="388" depart="155.20">
        <route edges="E44 E46 E38 E37 E35 E30 E29 E27 E20 E17 E15 E11 E9 E2 E0"/>
    </vehicle>
    <vehicle id="389" depart="155.60">
        <route edges="E52 E50 E49"/>
    </vehicle>
    <vehicle id="390" depart="156.00">
        <route edges="E44 E46 E38 E37 E35 E30 E29 E27 E20 E17 E15 E11 E9 E7"/>
    </vehicle>
    <vehicle id="391" depart="156.40">
        <route edges="E46 E38 E37"/>
    </vehicle>
    <vehicle id="394" depart="157.60">
        <route edges="E16 E18 E19 E21 E28 E31 E32 E36 E39 E48 gneE22 E53"/>
    </vehicle>
    <vehicle id="395" depart="158.00">
        <route edges="E25 E28 E31 E32 E36 E39 E45 E43"/>
    </vehicle>
    <vehicle id="398" depart="159.20">
        <route edges="E54 E52 E50 E49 E47 E38 E37 E35 E30 E29 E27 E23"/>
    </vehicle>
    <vehicle id="400" depart="160.00">
        <route edges="E39 E45"/>
    </vehicle>
    <vehicle id="402" depart="160.80">
        <route edges="E45 E43"/>
    </vehicle>
    <vehicle id="404" depart="161.60">
        <route edges="E45"/>
    </vehicle>
    <vehicle id="405" depart="162.00">
        <route edges="E19 E21 E28 E31 E32"/>
    </vehicle>
    <vehicle id="407" depart="162.80">
        <route edges="E1 E4 E10 E12 E16 E18 E19 E21 E23"/>
    </vehicle>
    <vehicle id="411" depart="164.40">
        <route edges="E52 E50 E49 E47 E38 E37 E35"/>
    </vehicle>
    <vehicle id="413" depart="165.20">
        <route edges="E4 E10 E12 E16 E18 E19 E21 E28 E31 E32 E36 E39 E45"/>
    </vehicle>
    <vehicle id="424" depart="169.60">
        <route edges="E4 E10 E12 E16 E18 E19 E21"/>
    </vehicle>
    <vehicle id="426" depart="170.40">
        <route edges="E32 E36 E39 E48 gneE22 E53 E55"/>
    </vehicle>
    <vehicle id="427" depart="170.80">
        <route edges="E33 E30 E29 E27"/>
    </vehicle>
    <vehicle id="429" depart="171.60">
        <route edges="E35 E30 E29"/>
    </vehicle>
    <vehicle id="430" depart="172.00">
        <route edges="E25 E28 E31 E32 E36"/>
    </vehicle>
    <vehicle id="432" depart="172.80">
        <route edges="E33 E36 E39 E45"/>
    </vehicle>
    <vehicle id="435" depart="174.00">
        <route edges="E52 E50 E49"/>
    </vehicle>
    <vehicle id="437" depart="174.80">
        <route edges="E31 E32"/>
    </vehicle>
    <vehicle id="440" depart="176.00">
        <route edges="E12 E16 E18 E19 E21 E28 E31 E32"/>
    </vehicle>
    <vehicle id="443" depart="177.20">
        <route edges="E37 E35 E30 E29 E27 E20 E17 E15 E11 E9"/>
    </vehicle>
    <vehicle id="444" depart="177.60">
        <route edges="E54 E52 E50 E49 E47 E38 E37 E35 E30 E29 E27 E23"/>
    </vehicle>
    <vehicle id="448" depart="179.20">
        <route edges="E39 E45"/>
    </vehicle>
    <vehicle id="450" depart="180.00">
        <route edges="E35 E30 E29 E27 E20 E17 E15 E11 E9 E6"/>
    </vehicle>
    <vehicle id="452" depart="180.80">
        <route edges="E42 E48 gneE22 E53 E55"/>
    </vehicle>
    <vehicle id="454" depart="181.60">
        <route edges="E47 E38 E37 E35 E34"/>
    </vehicle>
    <vehicle id="458" depart="183.20">
        <route edges="E40 E42 E38 E37 E35 E34"/>
    </vehicle>
    <vehicle id="464" depart="185.60">
        <route edges="E29 E27 E24"/>
    </vehicle>
    <vehicle id="468" depart="187.20">
        <route edges="E40 E42 E38 E37 E35 E30 E29 E27 E20 E17 E15 E11 E9"/>
    </vehicle>
    <vehicle id="469" depart="187.60">
        <route edges="E25 E20"/>
    </vehicle>
    <vehicle id="472" depart="188.80">
        <route edges="E47 E38 E37 E35 E30 E29 E27 E20 E17 E15 E11 E9 E2"/>
    </vehicle>
    <vehicle id="474" depart="189.60">
        <route edges="E50 E49 E47 E38 E37 E35 E30 E29 E27 E20 E17 E15 E11"/>
    </vehicle>
    <vehicle id="475" depart="190.00">
        <route edges="E40 E42 E48"/>
    </vehicle>
    <vehicle id="478" depart="191.20">
        <route edges="E56 E52 E50 E49 E47 E45 E43"/>
    </vehicle>
    <vehicle id="482" depart="192.80">
        <route edges="E37 E35 E30 E29 E27 E20 E17 E15 E11 E9 E6"/>
    </vehicle>
    <vehicle id="484" depart="193.60">
        <route edges="E46 E38 E37 E35 E30 E29 E27 E20 E17 E15 E11 E9 E2 E0"/>
    </vehicle>
    <vehicle id="486" depart="194.40">
        <route edges="E42 E38 E37 E35 E30 E29 E27 E20 E17 E15"/>
    </vehicle>
    <vehicle id="489" depart="195.60">
        <route edges="E13 E16 E18 E19 E21 E28 E31 E32 E36 E39 E48"/>
    </vehicle>
    <vehicle id="493" depart="197.20">
        <route edges="E28 E31 E32 E36 E39 E48 gneE22 E53 E55"/>
    </vehicle>
    <vehicle id="496" depart="198.40">
        <route edges="E4 E10 E12 E16 E18 E19 E21 E28 E31 E32 E36 E39 E48"/>
    </vehicle>
    <vehicle id="497" depart="198.80">
        <route edges="E16"/>
    </vehicle>
    <vehicle id="498" depart="199.20">
        <route edges="E1 E4 E10 E12 E16 E18 E19 E21 E28 E31 E32 E36 E39 E45"/>
    </vehicle>
    <vehicle id="500" depart="200.00">
        <route edges="E22 E28 E31"/>
    </vehicle>
    <vehicle id="502" depart="200.80">
        <route edges="E5 E10 E12 E16 E18 E19 E21 E28 E31 E32 E36 E39 E48 gneE22 E53 E55"/>
    </vehicle>
    <vehicle id="506" depart="202.40">
        <route edges="E44 E46 E38 E37 E35 E30 E29 E27 E20 E17 E15"/>
    </vehicle>
    <vehicle id="507" depart="202.80">
        <route edges="E22 E28 E31 E32 E36 E39 E45"/>
    </vehicle>
    <vehicle id="508" depart="203.20">
        <route edges="E49 E47 E38 E37 E35 E30 E29 E27 E20 E17"/>
    </vehicle>
    <vehicle id="512" depart="204.80">
        <route edges="E13 E16 E18 E19 E21 E28 E31 E32 E36 E39"/>
    </vehicle>
    <vehicle id="514" depart="205.60">
        <route edges="E56 E52 E50 E49 E47 E38 E37 E35 E30 E29 E27 E20 E17 E15 E11"/>
    </vehicle>
    <vehicle id="519" depart="207.60">
        <route edges="E26 E25 E20 E17"/>
    </vehicle>
    <vehicle id="523" depart="209.20">
        <route edges="E25 E28 E31"/>
    </vehicle>
    <vehicle id="524" depart="209.60">
        <route edges="E42 E38 E37"/>
    </vehicle>
    <vehicle id="525" depart="210.00">
        <route edges="E50 E49 E47 E38 E37 E35 E30 E29 E27 E20 E17 E15 E11 E9"/>
    </vehicle>
    <vehicle id="526" depart="210.40">
        <route edges="E40 E42"/>
    </vehicle>
    <vehicle id="527" depart="210.80">
        <route edges="E15 E11 E9 E6"/>
    </vehicle>
    <vehicle id="529" depart="211.60">
        <route edges="E26 E25 E20 E17 E15 E11 E9 E2 E0"/>
    </vehicle>
    <vehicle id="530" depart="212.00">
        <route edges="E50 E49 E47 E45 E43"/>
    </vehicle>
    <vehicle id="533" depart="213.20">
        <route edges="E26 E25 E28 E31 E32 E36 E39"/>
    </vehicle>
    <vehicle id="534" depart="213.60">
        <route edges="E52 E50 E49 E47 E38 E37 E35 E30 E29 E27 E20 E17 E15 E11"/>
    </vehicle>
    <vehicle id="537" depart="214.80">
        <route edges="E50 E49 E47 E38 E37 E35 E30 E29 E27 E20 E17 E15 E11 E9 E7"/>
    </vehicle>
    <vehicle id="540" depart="216.00">
        <route edges="E40 E42 E48 gneE22"/>
    </vehicle>
    <vehicle id="542" depart="216.80">
        <route edges="E56 E52 E50 E49 E47 E41"/>
    </vehicle>
    <vehicle id="544" depart="217.60">
        <route edges="E46 E38 E37 E35 E30 E29 E27 E20 E17 E15 E11 E9 E6"/>
    </vehicle>
    <vehicle id="545" depart="218.00">
        <route edges="E38 E37 E35 E34"/>
    </vehicle>
    <vehicle id="546" depart="218.40">
        <route edges="E50 E49 E47 E38 E37 E35 E34"/>
    </vehicle>
    <vehicle id="551" depart="220.40">
        <route edges="E35 E30 E29 E27 E24"/>
    </vehicle>
    <vehicle id="553" depart="221.20">
        <route edges="E26 E25 E20 E17"/>
    </vehicle>
    <vehicle id="554" depart="221.60">
        <route edges="E5 E10 E12 E16 E18 E19 E21 E28 E31 E32 E36 E39"/>
    </vehicle>
    <vehicle id="556" depart="222.40">
        <route edges="E52 E50 E49 E47 E41"/>
    </vehicle>
    <vehicle id="560" depart="224.00">
        <route edges="E54 E52 E50 E49 E47 E38 E37 E35"/>
    </vehicle>
    <vehicle id="563" depart="225.20">
        <route edges="E47 E38 E37 E35 E30 E29 E27 E20 E17 E15 E11 E9 E2 E0"/>
    </vehicle>
    <vehicle id="568" depart="227.20">
        <route edges="E40 E42 E48 gneE22"/>
    </vehicle>
    <vehicle id="571" depart="228.40">
        <route edges="E33 E30 E29 E27"/>
    </vehicle>
    <vehicle id="573" depart="229.20">
        <route edges="E17 E15 E11 E9 E7"/>
    </vehicle>
    <vehicle id="575" depart="230.00">
        <route edges="E42 E38 E37 E35 E30 E29 E27 E20 E17 E15 E11 E9 E7"/>
    </vehicle>
    <vehicle id="576" depart="230.40">
        <route edges="E33 E36 E39 E48 gneE22 E53 E55"/>
    </vehicle>
    <vehicle id="577" depart="230.80">
        <route edges="E26 E25 E28 E31 E32 E36 E39 E48 gneE22 E53 E55"/>
    </vehicle>
    <vehicle id="578" depart="231.20">
        <route edges="E4"/>
    </vehicle>
    <vehicle id="579" depart="231.60">
        <route edges="E16 E18 E19 E21 E28 E31 E32 E36 E39 E41"/>
    </vehicle>
    <vehicle id="580" depart="232.00">
        <route edges="E12 E16 E18 E19 E21 E28 E31 E32 E34"/>
    </vehicle>
    <vehicle id="584" depart="233.60">
        <route edges="E54 E57"/>
    </vehicle>
    <vehicle id="587" depart="234.80">
        <route edges="E22 E28 E31"/>
    </vehicle>
    <vehicle id="591" depart="236.40">
        <route edges="E42 E45"/>
    </vehicle>
    <vehicle id="592" depart="236.80">
        <route edges="E38 E37 E35 E30 E29 E27 E20 E17 E15 E14"/>
    </vehicle>
    <vehicle id="597" depart="238.80">
        <route edges="E33 E30"/>
    </vehicle>
    <vehicle id="599" depart="239.60">
        <route edges="E17 E15"/>
    </vehicle>
    <vehicle id="600" depart="240.00">
        <route edges="E56 E52 E50 E49 E47 E38 E37 E35 E30 E29 E27 E20 E17 E15 E11 E9 E2"/>
    </vehicle>
    <vehicle id="606" depart="242.40">
        <route edges="E56 E52 E50 E49 E47 E38 E37 E35 E30 E29 E27 E20 E17 E15"/>
    </vehicle>
    <vehicle id="607" depart="242.80">
        <route edges="E4 E10 E12 E16 E18 E19 E21 E28 E31 E32 E36 E39 E48 gneE22"/>
    </vehicle>
    <vehicle id="609" depart="243.60">
        <route edges="E37 E35 E30 E29 E27 E20 E17"/>
    </vehicle>
    <vehicle id="610" depart="244.00">
        <route edges="E20 E17 E15 E11 E9"/>
    </vehicle>
    <vehicle id="615" depart="246.00">
        <route edges="gneE22"/>
    </vehicle>
    <vehicle id="616" depart="246.40">
        <route edges="E56 E52 E50 E49 E47 E38"/>
    </vehicle>
    <vehicle id="620" depart="248.00">
        <route edges="E20 E17 E15 E11 E9"/>
    </vehicle>
    <vehicle id="628" depart="251.20">
        <route edges="E29 E27 E20 E17 E15 E14"/>
    </vehicle>
    <vehicle id="629" depart="251.60">
        <route edges="E37 E35 E30 E29 E27 E20 E17 E15 E14"/>
    </vehicle>
    <vehicle id="631" depart="252.40">
        <route edges="E5 E10 E12 E16 E18 E19 E21 E28 E31 E32 E36"/>
    </vehicle>
    <vehicle id="634" depart="253.60">
        <route edges="E1 E4 E6"/>
    </vehicle>
    <vehicle id="635" depart="254.00">
        <route edges="E28 E31 E32"/>
    </vehicle>
    <vehicle id="636" depart="254.40">
        <route edges="E37 E35"/>
    </vehicle>
    <vehicle id="637" depart="254.80">
        <route edges="E42"/>
    </vehicle>
    <vehicle id="639" depart="255.60">
        <route edges="E16 E18 E19 E21 E28 E31 E32 E36 E39 E48 gneE22 E53 E55"/>
    </vehicle>
    <vehicle id="642" depart="256.80">
        <route edges="E26 E25 E28 E31 E32 E36"/>
    </vehicle>
    <vehicle id="643" depart="257.20">
        <route edges="E42 E48 gneE22 E53 E55"/>
    </vehicle>
    <vehicle id="644" depart="257.60">
        <route edges="E26 E25 E28 E31 E32"/>
    </vehicle>
    <vehicle id="645" depart="258.00">
        <route edges="E10 E12 E16 E18 E19 E21 E28 E31 E32 E36 E39 E45"/>
    </vehicle>
    <vehicle id="648" depart="259.20">
        <route edges="E22 E28 E31 E32 E36 E39 E45"/>
    </vehicle>
    <vehicle id="649" depart="259.60">
        <route edges="E8 E10 E12 E16 E18 E19 E21 E28 E31 E32 E36 E39 E45 E43"/>
    </vehicle>
    <vehicle id="651" depart="260.40">
        <route edges="E54 E52 E50 E49 E47 E38 E37 E35 E30 E29 E27 E20 E17 E15 E11"/>
    </vehicle>
    <vehicle id="654" depart="261.60">
        <route edges="E5 E10 E12 E16 E18 E19 E21 E28 E31 E32 E36 E39 E48 gneE22 E53 E57"/>
    </vehicle>
    <vehicle id="655" depart="262.00">
        <route edges="gneE22"/>
    </vehicle>
    <vehicle id="657" depart="262.80">
        <route edges="E29 E27 E20 E17 E15 E11"/>
    </vehicle>
    <vehicle id="659" depart="263.60">
        <route edges="E5 E10 E12 E16 E18 E19 E21 E28 E31 E32 E36 E39 E48"/>
    </vehicle>
    <vehicle id="660" depart="264.00">
        <route edges="E30 E29 E27 E20"/>
    </vehicle>
    <vehicle id="662" depart="264.80">
        <route edges="E20 E17 E15 E11 E9 E7"/>