<?xml version="1.0" encoding="UTF-8"?>

<!-- generated on 2021-09-29 19:48:19 by Eclipse SUMO duarouter Version 1.9.2
<configuration xmlns:xsi="http://www.w3.org/2001/XMLSchema-instance" xsi:noNamespaceSchemaLocation="http://sumo.dlr.de/xsd/duarouterConfiguration.xsd">

    <input>
        <net-file value="/home/sonic/Desktop/nets/case06/intersection.net.xml"/>
        <route-files value="trips.trips.xml"/>
    </input>

    <output>
        <output-file value="intersection_random13.rou.xml"/>
        <alternatives-output value="intersection_random13.rou.alt.xml"/>
    </output>

    <time>
        <begin value="0"/>
        <end value="18000.0"/>
    </time>

    <report>
        <no-warnings value="true"/>
        <ignore-errors value="true"/>
        <no-step-log value="true"/>
    </report>

</configuration>
-->

<routes xmlns:xsi="http://www.w3.org/2001/XMLSchema-instance" xsi:noNamespaceSchemaLocation="http://sumo.dlr.de/xsd/routes_file.xsd">
    <vehicle id="1" depart="0.40">
        <route edges="E36 E39 E48 gneE22 E53"/>
    </vehicle>
    <vehicle id="4" depart="1.60">
        <route edges="E44 E46 E38 E37 E35 E30 E29 E27 E20 E17"/>
    </vehicle>
    <vehicle id="5" depart="2.00">
        <route edges="E8 E2"/>
    </vehicle>
    <vehicle id="6" depart="2.40">
        <route edges="E26 E25 E28 E31 E32 E36 E39 E48"/>
    </vehicle>
    <vehicle id="9" depart="3.60">
        <route edges="E32 E36"/>
    </vehicle>
    <vehicle id="15" depart="6.00">
        <route edges="E50 E49 E47 E38 E37 E35 E30 E29 E27 E20 E17 E15 E11"/>
    </vehicle>
    <vehicle id="17" depart="6.80">
        <route edges="E9 E6"/>
    </vehicle>
    <vehicle id="21" depart="8.40">
        <route edges="E1 E4 E10 E12 E16 E18 E19 E21 E28 E31 E32 E36 E39 E48 gneE22 E53"/>
    </vehicle>
    <vehicle id="24" depart="9.60">
        <route edges="E25 E28 E31 E32 E36 E39 E48 gneE22 E53 E57 E58"/>
    </vehicle>
    <vehicle id="26" depart="10.40">
        <route edges="E49 E47 E38 E37 E35 E30 E29 E27 E24"/>
    </vehicle>
    <vehicle id="29" depart="11.60">
        <route edges="E32 E36 E39"/>
    </vehicle>
    <vehicle id="33" depart="13.20">
        <route edges="E16 E18 E19 E21 E28 E31 E32 E36 E39 E48 gneE22 E53 E57"/>
    </vehicle>
    <vehicle id="36" depart="14.40">
        <route edges="E16 E18 E19 E21"/>
    </vehicle>
    <vehicle id="39" depart="15.60">
        <route edges="E54 E52 E50 E49 E47 E38 E37 E35 E30 E29 E27 E20 E17 E15 E11 E9"/>
    </vehicle>
    <vehicle id="41" depart="16.40">
        <route edges="E44 E46 E38 E37 E35 E30 E29 E27 E20 E17 E15 E11 E9 E7"/>
    </vehicle>
    <vehicle id="44" depart="17.60">
        <route edges="E19 E21 E28"/>
    </vehicle>
    <vehicle id="47" depart="18.80">
        <route edges="E42 E38 E37 E35 E30 E29 E27 E23"/>
    </vehicle>
    <vehicle id="49" depart="19.60">
        <route edges="E29 E27 E20 E17 E15 E11 E9 E2 E0"/>
    </vehicle>
    <vehicle id="50" depart="20.00">
        <route edges="E21 E28 E31 E32 E36 E39 E48 gneE22"/>
    </vehicle>
    <vehicle id="53" depart="21.20">
        <route edges="E26 E25 E20 E17 E15 E11 E9 E2 E0"/>
    </vehicle>
    <vehicle id="56" depart="22.40">
        <route edges="E28 E31 E32 E36 E39 E45 E43"/>
    </vehicle>
    <vehicle id="57" depart="22.80">
        <route edges="E19"/>
    </vehicle>
    <vehicle id="63" depart="25.20">
        <route edges="E52 E50 E49 E47 E38 E37 E35 E30 E29 E27"/>
    </vehicle>
    <vehicle id="64" depart="25.60">
        <route edges="E44 E46 E48 gneE22 E53 E57"/>
    </vehicle>
    <vehicle id="65" depart="26.00">
        <route edges="E31 E32 E36 E39 E41"/>
    </vehicle>
    <vehicle id="68" depart="27.20">
        <route edges="E15 E11 E9 E6"/>
    </vehicle>
    <vehicle id="71" depart="28.40">
        <route edges="E42 E38 E37 E35 E30 E29 E27 E20 E17 E15 E11 E9 E2 E0"/>
    </vehicle>
    <vehicle id="73" depart="29.20">
        <route edges="E26 E25 E20 E17 E15 E11 E9 E6"/>
    </vehicle>
    <vehicle id="74" depart="29.60">
        <route edges="E40 E42 E38 E37 E35 E30 E29 E27 E20 E17"/>
    </vehicle>
    <vehicle id="77" depart="30.80">
        <route edges="E38 E37 E35 E30 E29 E27 E20 E17 E15 E11 E9 E2 E0"/>
    </vehicle>
    <vehicle id="79" depart="31.60">
        <route edges="E16 E18 E19 E21 E28 E31 E32 E36 E39 E48 gneE22 E53"/>
    </vehicle>
    <vehicle id="82" depart="32.80">
        <route edges="E56 E52 E50 E49 E47 E45 E43"/>
    </vehicle>
    <vehicle id="85" depart="34.00">
        <route edges="E40 E42 E38 E37 E35 E34"/>
    </vehicle>
    <vehicle id="86" depart="34.40">
        <route edges="E49"/>
    </vehicle>
    <vehicle id="90" depart="36.00">
        <route edges="E40 E42 E48 gneE22 E53 E55"/>
    </vehicle>
    <vehicle id="93" depart="37.20">
        <route edges="E39 E41"/>
    </vehicle>
    <vehicle id="95" depart="38.00">
        <route edges="E22 E20 E17 E15 E14"/>
    </vehicle>
    <vehicle id="97" depart="38.80">
        <route edges="E50 E49 E47 E38 E37 E35 E30 E29 E27"/>
    </vehicle>
    <vehicle id="98" depart="39.20">
        <route edges="E5 E10 E12 E16 E18 E19 E21 E28 E31 E32 E36 E39 E48 gneE22"/>
    </vehicle>
    <vehicle id="100" depart="40.00">
        <route edges="E38 E37 E35 E30 E29 E27 E20 E17 E15 E11"/>
    </vehicle>
    <vehicle id="101" depart="40.40">
        <route edges="E16 E18 E19 E21 E28 E31 E32 E36 E39 E45"/>
    </vehicle>
    <vehicle id="105" depart="42.00">
        <route edges="E26 E25 E20 E17 E15 E11 E9 E6"/>
    </vehicle>
    <vehicle id="106" depart="42.40">
        <route edges="E29 E27 E20 E17 E15 E11 E9"/>
    </vehicle>
    <vehicle id="108" depart="43.20">
        <route edges="E44 E46 E38 E37 E35 E30 E29 E27 E24"/>
    </vehicle>
    <vehicle id="111" depart="44.40">
        <route edges="E48 gneE22 E53 E55"/>
    </vehicle>
    <vehicle id="115" depart="46.00">
        <route edges="E50 E49 E47 E38 E37 E35 E30 E29"/>
    </vehicle>
    <vehicle id="117" depart="46.80">
        <route edges="E12 E16 E18 E19 E21 E28 E31 E32 E36 E39 E45 E43"/>
    </vehicle>
    <vehicle id="120" depart="48.00">
        <route edges="E20 E17 E15 E14"/>
    </vehicle>
    <vehicle id="124" depart="49.60">
        <route edges="E22 E28 E31 E32 E36 E39 E48 gneE22"/>
    </vehicle>
    <vehicle id="126" depart="50.40">
        <route edges="E54 E52 E50 E49 E47 E38 E37 E35 E30 E29 E27 E20 E17 E15 E14"/>
    </vehicle>
    <vehicle id="127" depart="50.80">
        <route edges="E39 E48 gneE22 E53 E57"/>
    </vehicle>
    <vehicle id="131" depart="52.40">
        <route edges="E33 E36 E39 E48 gneE22 E53 E57 E58"/>
    </vehicle>
    <vehicle id="142" depart="56.80">
        <route edges="E22 E20 E17 E15 E11 E9"/>
    </vehicle>
    <vehicle id="144" depart="57.60">
        <route edges="E8 E10 E12 E16 E18 E19 E21 E28 E31 E32 E36 E39 E45 E43"/>
    </vehicle>
    <vehicle id="146" depart="58.40">
        <route edges="E5 E10 E12 E16 E18 E19 E21"/>
    </vehicle>
    <vehicle id="148" depart="59.20">
        <route edges="E38"/>
    </vehicle>
    <vehicle id="154" depart="61.60">
        <route edges="E18 E19 E21"/>
    </vehicle>
    <vehicle id="155" depart="62.00">
        <route edges="E18 E19 E21"/>
    </vehicle>
    <vehicle id="159" depart="63.60">
        <route edges="E4 E10 E12 E16 E18 E19 E21 E24"/>
    </vehicle>
    <vehicle id="161" depart="64.40">
        <route edges="E5 E10 E12 E16 E18 E19 E21 E28 E31 E32 E36 E39 E48 gneE22 E53 E55"/>
    </vehicle>
    <vehicle id="164" depart="65.60">
        <route edges="E38 E37 E35 E30 E29 E27 E20 E17 E15 E11 E9"/>
    </vehicle>
    <vehicle id="167" depart="66.80">
        <route edges="E56 E52 E50 E49 E47 E38 E37 E35 E30 E29 E27 E20 E17 E15 E11 E9"/>
    </vehicle>
    <vehicle id="169" depart="67.60">
        <route edges="E12 E16 E18 E19 E21 E28 E31 E32 E36 E39 E48 gneE22"/>
    </vehicle>
    <vehicle id="171" depart="68.40">
        <route edges="gneE22"/>
    </vehicle>
    <vehicle id="176" depart="70.40">
        <route edges="E56 E52 E50 E49 E47 E38 E37 E35"/>
    </vehicle>
    <vehicle id="179" depart="71.60">
        <route edges="E35 E30 E29 E27 E20"/>
    </vehicle>
    <vehicle id="180" depart="72.00">
        <route edges="E37 E35 E30"/>
    </vehicle>
    <vehicle id="181" depart="72.40">
        <route edges="E50 E49 E47 E38 E37"/>
    </vehicle>
    <vehicle id="182" depart="72.80">
        <route edges="E25"/>
    </vehicle>
    <vehicle id="184" depart="73.60">
        <route edges="E47 E38 E37 E35 E30 E29 E27"/>
    </vehicle>
    <vehicle id="187" depart="74.80">
        <route edges="E30 E29"/>
    </vehicle>
    <vehicle id="191" depart="76.40">
        <route edges="E27 E20 E17 E15 E11 E9"/>
    </vehicle>
    <vehicle id="194" depart="77.60">
        <route edges="E11 E9"/>
    </vehicle>
    <vehicle id="197" depart="78.80">
        <route edges="E1 E4 E10"/>
    </vehicle>
    <vehicle id="204" depart="81.60">
        <route edges="E40 E42 E38"/>
    </vehicle>
    <vehicle id="205" depart="82.00">
        <route edges="E22 E28 E31 E32 E36 E39 E48 gneE22 E53"/>
    </vehicle>
    <vehicle id="207" depart="82.80">
        <route edges="E13 E16 E18 E19 E21 E28 E31 E32 E36 E39 E48 gneE22 E53 E55"/>
    </vehicle>
    <vehicle id="209" depart="83.60">
        <route edges="E5 E10 E12 E16 E18 E19 E21 E28 E31 E32 E36 E39 E45 E43"/>
    </vehicle>
    <vehicle id="210" depart="84.00">
        <route edges="E33 E30 E29 E27 E20 E17 E15 E11 E9 E2"/>
    </vehicle>
    <vehicle id="211" depart="84.40">
        <route edges="E12 E16 E18 E19 E21 E28 E31 E32 E36 E39 E48 gneE22 E53 E57"/>
    </vehicle>
    <vehicle id="212" depart="84.80">
        <route edges="E10 E12 E16 E18 E19 E21 E24"/>
    </vehicle>
    <vehicle id="214" depart="85.60">
        <route edges="E54 E52 E50 E49 E47 E38 E37 E35 E30 E29 E27 E20 E17 E15"/>
    </vehicle>
    <vehicle id="215" depart="86.00">
        <route edges="E18 E19 E21 E24"/>
    </vehicle>
    <vehicle id="217" depart="86.80">
        <route edges="E44 E46 E38 E37 E35 E30 E29 E27 E20 E17 E15 E14"/>
    </vehicle>
    <vehicle id="218" depart="87.20">
        <route edges="E27 E20 E17 E15 E11 E9 E6"/>
    </vehicle>
    <vehicle id="220" depart="88.00">
        <route edges="E29 E27 E20 E17 E15 E11 E9 E6"/>
    </vehicle>
    <vehicle id="223" depart="89.20">
        <route edges="E8 E10 E12 E16 E18 E19 E21 E28 E31 E32 E36 E39 E48 gneE22 E53"/>
    </vehicle>
    <vehicle id="229" depart="91.60">
        <route edges="E19 E21 E28 E31 E32"/>
    </vehicle>
    <vehicle id="230" depart="92.00">
        <route edges="E28 E31 E32 E36 E39 E48 gneE22"/>
    </vehicle>
    <vehicle id="231" depart="92.40">
        <route edges="E11 E9 E2 E0"/>
    </vehicle>
    <vehicle id="236" depart="94.40">
        <route edges="E46 E41"/>
    </vehicle>
    <vehicle id="237" depart="94.80">
        <route edges="E56 E52"/>
    </vehicle>
    <vehicle id="243" depart="97.20">
        <route edges="E54 E52 E50 E49 E47 E38 E37 E35 E30 E29 E27 E20 E17 E15 E11 E9 E7"/>
    </vehicle>
    <vehicle id="248" depart="99.20">
        <route edges="E54 E57"/>
    </vehicle>
    <vehicle id="252" depart="100.80">
        <route edges="E1 E4 E10 E12 E16 E18 E19 E21 E28 E31 E32 E34"/>
    </vehicle>
    <vehicle id="255" depart="102.00">
        <route edges="E52 E50 E49 E47 E38 E37 E35 E30 E29 E27 E23"/>
    </vehicle>
    <vehicle id="256" depart="102.40">
        <route edges="E50 E49 E47 E38 E37 E35"/>
    </vehicle>
    <vehicle id="258" depart="103.20">
        <route edges="E33 E30 E29 E27 E20 E17 E15 E11 E9 E2"/>
    </vehicle>
    <vehicle id="260" depart="104.00">
        <route edges="E26 E25 E28 E31"/>
    </vehicle>
    <vehicle id="261" depart="104.40">
        <route edges="E25 E28 E31 E32 E36 E39 E48 gneE22 E53 E57"/>
    </vehicle>
    <vehicle id="262" depart="104.80">
        <route edges="E52 E50 E49 E47 E38 E37 E35 E30 E29 E27 E20 E17 E15 E11"/>
    </vehicle>
    <vehicle id="264" depart="105.60">
        <route edges="E13 E16 E18 E19 E21 E28 E31 E32 E36 E39 E48 gneE22 E53"/>
    </vehicle>
    <vehicle id="265" depart="106.00">
        <route edges="E38 E37"/>
    </vehicle>
    <vehicle id="271" depart="108.40">
        <route edges="E16 E18 E19 E21 E28 E31 E32 E36 E39"/>
    </vehicle>
    <vehicle id="272" depart="108.80">
        <route edges="E35 E30 E29 E27 E20"/>
    </vehicle>
    <vehicle id="273" depart="109.20">
        <route edges="E15 E11 E9 E7"/>
    </vehicle>
    <vehicle id="276" depart="110.40">
        <route edges="E29 E27 E20 E17 E15 E11 E9 E7"/>
    </vehicle>
    <vehicle id="279" depart="111.60">
        <route edges="E42 E38 E37 E35 E30 E29 E27 E20 E17 E15 E11 E9 E2"/>
    </vehicle>
    <vehicle id="280" depart="112.00">
        <route edges="E12 E16 E18"/>
    </vehicle>
    <vehicle id="281" depart="112.40">
        <route edges="E16 E18 E19 E21"/>
    </vehicle>
    <vehicle id="283" depart="113.20">
        <route edges="E35 E30 E29 E27 E23"/>
    </vehicle>
    <vehicle id="284" depart="113.60">
        <route edges="E54 E52 E50 E49 E47 E38 E37 E35 E30 E29 E27 E20 E17 E15 E11"/>
    </vehicle>
    <vehicle id="288" depart="115.20">
        <route edges="E21 E28 E31 E32 E36 E39 E41"/>
    </vehicle>
    <vehicle id="289" depart="115.60">
        <route edges="E56 E52 E50 E49 E47 E38 E37 E35 E30 E29 E27 E20 E17 E15 E14"/>
    </vehicle>
    <vehicle id="291" depart="116.40">
        <route edges="E48 gneE22 E53 E57"/>
    </vehicle>
    <vehicle id="294" depart="117.60">
        <route edges="E9 E6"/>
    </vehicle>
    <vehicle id="295" depart="118.00">
        <route edges="E4 E10 E12 E16 E18 E19 E21 E28 E31 E32 E34"/>
    </vehicle>
    <vehicle id="296" depart="118.40">
        <route edges="E46 E38 E37 E35 E30 E29 E27 E20 E17 E15 E14"/>
    </vehicle>
    <vehicle id="298" depart="119.20">
        <route edges="E46 E48 gneE22 E53 E57 E58"/>
    </vehicle>
    <vehicle id="302" depart="120.80">
        <route edges="E5 E10 E12 E16 E18 E19 E21 E28 E31 E32 E34"/>
    </vehicle>
    <vehicle id="303" depart="121.20">
        <route edges="E44 E46 E38 E37 E35 E30 E29 E27 E24"/>
    </vehicle>
    <vehicle id="305" depart="122.00">
        <route edges="E50 E49 E47 E38 E37 E35 E30 E29 E27 E20 E17 E15 E11 E9"/>
    </vehicle>
    <vehicle id="306" depart="122.40">
        <route edges="E16 E18"/>
    </vehicle>
    <vehicle id="308" depart="123.20">
        <route edges="E19 E21 E28 E31 E32 E36 E39 E48 gneE22"/>
    </vehicle>
    <vehicle id="310" depart="124.00">
        <route edges="E1 E4 E10 E12 E16 E18 E19 E21 E28 E31 E32 E36 E39 E48 gneE22 E53 E57"/>
    </vehicle>
    <vehicle id="312" depart="124.80">
        <route edges="E1 E4 E10 E12 E16 E18"/>
    </vehicle>
    <vehicle id="313" depart="125.20">
        <route edges="E52 E50"/>
    </vehicle>
    <vehicle id="317" depart="126.80">
        <route edges="E49 E47 E38 E37 E35 E30 E29 E27 E20 E17 E15 E11 E9 E6"/>
    </vehicle>
    <vehicle id="319" depart="127.60">
        <route edges="E38 E37 E35 E30 E29 E27 E20 E17 E15 E11 E9 E7"/>
    </vehicle>
    <vehicle id="324" depart="129.60">
        <route edges="E42 E48 gneE22 E53 E57 E58"/>
    </vehicle>
    <vehicle id="330" depart="132.00">
        <route edges="E18 E19 E21 E28 E31 E32 E36"/>
    </vehicle>
    <vehicle id="332" depart="132.80">
        <route edges="E18 E19 E21 E28 E31 E32 E36 E39 E48 gneE22 E53 E55"/>
    </vehicle>
    <vehicle id="333" depart="133.20">
        <route edges="E12 E16 E18 E19 E21 E28 E31 E32 E36 E39 E45"/>
    </vehicle>
    <vehicle id="334" depart="133.60">
        <route edges="E8 E10 E12 E16 E18 E19 E21 E23"/>
    </vehicle>
    <vehicle id="335" depart="134.00">
        <route edges="E35 E30 E29 E27 E20 E17 E15 E11 E9 E2 E0"/>
    </vehicle>
    <vehicle id="336" depart="134.40">
        <route edges="E16 E18 E19 E21 E23"/>
    </vehicle>
    <vehicle id="337" depart="134.80">
        <route edges="E30 E29 E27 E20 E17 E15 E11 E9 E2 E0"/>
    </vehicle>
    <vehicle id="340" depart="136.00">
        <route edges="E11 E9 E2"/>
    </vehicle>
    <vehicle id="344" depart="137.60">
        <route edges="E25 E28 E31"/>
    </vehicle>
    <vehicle id="345" depart="138.00">
        <route edges="E49 E47 E38 E37"/>
    </vehicle>
    <vehicle id="346" depart="138.40">
        <route edges="E4 E10"/>
    </vehicle>
    <vehicle id="347" depart="138.80">
        <route edges="E13 E16 E18 E19 E21 E28 E31 E32 E36 E39 E48 gneE22 E53 E57"/>
    </vehicle>
    <vehicle id="349" depart="139.60">
        <route edges="E46 E38 E37 E35 E30 E29 E27 E20 E17 E15"/>
    </vehicle>
    <vehicle id="353" depart="141.20">
        <route edges="E16 E18 E19 E21"/>
    </vehicle>
    <vehicle id="355" depart="142.00">
        <route edges="E28 E31 E32 E36 E39 E45 E43"/>
    </vehicle>
    <vehicle id="357" depart="142.80">
        <route edges="E13 E16 E18 E19 E21 E28 E31 E32"/>
    </vehicle>
    <vehicle id="359" depart="143.60">
        <route edges="E9 E2"/>
    </vehicle>
    <vehicle id="361" depart="144.40">
        <route edges="E54 E57"/>
    </vehicle>
    <vehicle id="371" depart="148.40">
        <route edges="E25 E20 E17 E15 E11 E9 E6"/>
    </vehicle>
    <vehicle id="375" depart="150.00">
        <route edges="E38 E37 E35 E30 E29 E27 E20"/>
    </vehicle>
    <vehicle id="377" depart="150.80">
        <route edges="E27 E20 E17 E15"/>
    </vehicle>
    <vehicle id="378" depart="151.20">
        <route edges="E32 E36"/>
    </vehicle>
    <vehicle id="379" depart="151.60">
        <route edges="E40 E42 E38 E37 E35 E30 E29 E27 E20 E17"/>
    </vehicle>
    <vehicle id="380" depart="152.00">
        <route edges="E16"/>
    </vehicle>
    <vehicle id="381" depart="152.40">
        <route edges="E22 E20"/>
    </vehicle>
    <vehicle id="382" depart="152.80">
        <route edges="E31 E32"/>
    </vehicle>
    <vehicle id="390" depart="156.00">
        <route edges="E21 E28 E31 E32 E36 E39 E48 gneE22"/>
    </vehicle>
    <vehicle id="397" depart="158.80">
        <route edges="E5 E2 E0"/>
    </vehicle>
    <vehicle id="398" depart="159.20">
        <route edges="E12 E16 E18 E19 E21 E28 E31 E32 E36 E39 E41"/>
    </vehicle>
    <vehicle id="399" depart="159.60">
        <route edges="E13 E16 E18 E19 E21 E28"/>
    </vehicle>
    <vehicle id="406" depart="162.40">
        <route edges="E27 E20 E17 E15 E11 E9 E6"/>
    </vehicle>
    <vehicle id="409" depart="163.60">
        <route edges="E56 E52 E50 E49 E47 E38 E37 E35 E30 E29 E27 E20 E17 E15 E11 E9 E6"/>
    </vehicle>
    <vehicle id="410" depart="164.00">
        <route edges="E47 E38 E37 E35 E30 E29 E27 E20 E17 E15 E14"/>
    </vehicle>
    <vehicle id="412" depart="164.80">
        <route edges="E54 E52 E50 E49 E47 E38 E37 E35 E30 E29 E27"/>
    </vehicle>
    <vehicle id="417" depart="166.80">
        <route edges="E33 E30 E29 E27 E20 E17 E15 E11"/>
    </vehicle>
    <vehicle id="421" depart="168.40">
        <route edges="E12 E16 E18 E19 E21 E28 E31 E32 E34"/>
    </vehicle>
    <vehicle id="422" depart="168.80">
        <route edges="E10 E12 E16 E18 E19 E21 E28 E31 E32 E36 E39 E45"/>
    </vehicle>
    <vehicle id="423" depart="169.20">
        <route edges="E10 E12 E16 E18"/>
    </vehicle>
    <vehicle id="426" depart="170.40">
        <route edges="E42 E38"/>
    </vehicle>
    <vehicle id="429" depart="171.60">
        <route edges="E42 E38 E37 E35"/>
    </vehicle>
    <vehicle id="432" depart="172.80">
        <route edges="E47 E38 E37"/>
    </vehicle>
    <vehicle id="437" depart="174.80">
        <route edges="E30 E29 E27 E20 E17"/>
    </vehicle>
    <vehicle id="439" depart="175.60">
        <route edges="E13 E16 E18 E19 E21 E28 E31 E32 E36 E39 E48 gneE22 E53 E57 E58"/>
    </vehicle>
    <vehicle id="442" depart="176.80">
        <route edges="E42 E38 E37 E35 E30 E29 E27"/>
    </vehicle>
    <vehicle id="444" depart="177.60">
        <route edges="E16 E18 E19 E21 E28 E31 E32 E36 E39 E48 gneE22 E53 E57"/>
    </vehicle>
    <vehicle id="446" depart="178.40">
        <route edges="E30 E29 E27 E20 E17 E15 E11 E9"/>
    </vehicle>
    <vehicle id="447" depart="178.80">
        <route edges="E1 E4 E10 E12 E16 E18"/>
    </vehicle>
    <vehicle id="448" depart="179.20">
        <route edges="E38 E37 E35 E30"/>
    </vehicle>
    <vehicle id="451" depart="180.40">
        <route edges="E35 E30 E29 E27 E20 E17 E15 E11 E9 E2 E0"/>
    </vehicle>
    <vehicle id="452" depart="180.80">
        <route edges="E33 E30 E29 E27 E20 E17 E15 E11 E9 E7"/>
    </vehicle>
    <vehicle id="453" depart="181.20">
        <route edges="E19 E21 E28 E31 E32 E36 E39 E48 gneE22"/>
    </vehicle>
    <vehicle id="457" depart="182.80">
        <route edges="E26 E25 E28 E31 E32 E36 E39 E45 E43"/>
    </vehicle>
    <vehicle id="458" depart="183.20">
        <route edges="E42 E38 E37 E35 E30 E29 E27 E20 E17 E15 E11 E9 E2"/>
    </vehicle>
    <vehicle id="463" depart="185.20">
        <route edges="E39 E48 gneE22 E53"/>
    </vehicle>
    <vehicle id="466" depart="186.40">
        <route edges="E40 E42 E38 E37 E35 E30 E29 E27 E20 E17 E15 E11 E9"/>
    </vehicle>
    <vehicle id="467" depart="186.80">
        <route edges="E28 E31 E32 E36 E39 E48 gneE22 E53 E55"/>
    </vehicle>
    <vehicle id="468" depart="187.20">
        <route edges="E28 E31 E32 E36 E39 E48 gneE22 E53 E55"/>
    </vehicle>
    <vehicle id="476" depart="190.40">
        <route edges="E27 E20 E17 E15 E11 E9 E2 E0"/>
    </vehicle>
    <vehicle id="486" depart="194.40">
        <route edges="E49 E47 E38 E37 E35 E30 E29 E27 E24"/>
    </vehicle>
    <vehicle id="497" depart="198.80">
        <route edges="E8 E10 E12"/>
    </vehicle>
    <vehicle id="500" depart="200.00">
        <route edges="E4 E10 E12 E16 E18 E19 E21 E28 E31 E32 E36 E39"/>
    </vehicle>
    <vehicle id="504" depart="201.60">
        <route edges="E9 E7"/>
    </vehicle>
    <vehicle id="506" depart="202.40">
        <route edges="E33 E30 E29 E27 E23"/>
    </vehicle>
    <vehicle id="508" depart="203.20">
        <route edges="E40 E42 E48 gneE22 E53 E57 E58"/>
    </vehicle>
    <vehicle id="511" depart="204.40">
        <route edges="E33 E36 E39"/>
    </vehicle>
    <vehicle id="514" depart="205.60">
        <route edges="E33 E30 E29 E27 E20 E17"/>
    </vehicle>
    <vehicle id="515" depart="206.00">
        <route edges="E16 E18 E19 E21 E28 E31 E32 E36 E39 E48 gneE22 E53 E55"/>
    </vehicle>
    <vehicle id="516" depart="206.40">
        <route edges="E49 E47 E38"/>
    </vehicle>
    <vehicle id="519" depart="207.60">
        <route edges="E56 E52 E50 E49 E47 E45 E43"/>
    </vehicle>
    <vehicle id="521" depart="208.40">
        <route edges="E47 E41"/>
    </vehicle>
    <vehicle id="529" depart="211.60">
        <route edges="E8 E10 E12 E16 E18 E19 E21 E23"/>
    </vehicle>
    <vehicle id="531" depart="212.40">
        <route edges="E5 E10"/>
    </vehicle>
    <vehicle id="532" depart="212.80">
        <route edges="E11"/>
    </vehicle>
    <vehicle id="538" depart="215.20">
        <route edges="E44 E46 E48"/>
    </vehicle>
    <vehicle id="540" depart="216.00">
        <route edges="E25 E28 E31 E32 E36 E39 E48 gneE22 E53 E57"/>
    </vehicle>
    <vehicle id="541" depart="216.40">
        <route edges="E54 E52 E50 E49 E47 E38 E37 E35 E30 E29 E27 E20"/>
    </vehicle>
    <vehicle id="546" depart="218.40">
        <route edges="E5 E10 E12 E16 E18 E19 E21 E28 E31 E32 E36 E39 E48 gneE22 E53 E57"/>
    </vehicle>
    <vehicle id="549" depart="219.60">
        <route edges="E16"/>
    </vehicle>
    <vehicle id="551" depart="220.40">
        <route edges="E56 E52 E50 E49 E47 E38 E37 E35 E30 E29 E27 E23"/>
    </vehicle>
    <vehicle id="555" depart="222.00">
        <route edges="E12 E16 E18 E19 E21 E28 E31 E32 E36 E39 E48 gneE22"/>
    </vehicle>
    <vehicle id="557" depart="222.80">
        <route edges="E8 E10 E12 E16 E18 E19 E21 E28 E31 E32 E36 E39 E48 gneE22 E53 E57"/>
    </vehicle>
    <vehicle id="560" depart="224.00">
        <route edges="E47 E38 E37 E35 E30 E29 E27 E20 E17 E15 E14"/>
    </vehicle>
    <vehicle id="561" depart="224.40">
        <route edges="E49 E47 E45"/>
    </vehicle>
    <vehicle id="562" depart="224.80">
        <route edges="E49 E47 E41"/>
    </vehicle>
    <vehicle id="563" depart="225.20">
        <route edges="E16 E18 E19 E21 E28 E31 E32 E36 E39 E45 E43"/>
    </vehicle>
    <vehicle id="565" depart="226.00">
        <route edges="E40 E42 E38"/>
    </vehicle>
    <vehicle id="568" depart="227.20">
        <route edges="E27"/>
    </vehicle>
    <vehicle id="576" depart="230.40">
        <route edges="E1 E4 E10 E12 E16"/>
    </vehicle>
    <vehicle id="591" depart="236.40">
        <route edges="E54 E52 E50 E49 E47 E38 E37 E35 E30 E29 E27 E20 E17 E15 E11 E9 E6"/>
    </vehicle>
    <vehicle id="593" depart="237.20">
        <route edges="E40 E42 E38 E37 E35 E30 E29 E27 E20 E17 E15 E14"/>
    </vehicle>
    <vehicle id="599" depart="239.60">
        <route edges="E28 E31 E32"/>
    </vehicle>
    <vehicle id="604" depart="241.60">
        <route edges="E47 E38 E37 E35 E30 E29 E27 E20 E17 E15 E11 E9 E2 E0"/>
    </vehicle>
    <vehicle id="608" depart="243.20">
        <route edges="E56 E52 E50 E49 E47 E38 E37 E35 E34"/>
    </vehicle>
    <vehicle id="610" depart="244.00">
        <route edges="E49 E47 E38 E37 E35 E30 E29 E27 E24"/>
    </vehicle>
    <vehicle id="611" depart="244.40">
        <route edges="E26 E25 E20 E17 E15 E11"/>
    </vehicle>
    <vehicle id="618" depart="247.20">
        <route edges="E12 E16 E18 E19 E21 E28 E31 E32 E36 E39 E45"/>
    </vehicle>
    <vehicle id="619" depart="247.60">
        <route edges="E8 E10 E12 E16 E18 E19 E21 E28 E31 E32 E36 E39 E45 E43"/>
    </vehicle>
    <vehicle id="621" depart="248.40">
        <route edges="E52 E50 E49 E47 E38 E37 E35 E34"/>
    </vehicle>
    <vehicle id="622" depart="248.80">
        <route edges="E40 E42 E38 E37 E35 E30 E29 E27 E20 E17"/>
    </vehicle>
    <vehicle id="623" depart="249.20">
        <route edges="E37 E35 E30 E29 E27 E20 E17 E15 E11 E9 E6"/>
    </vehicle>
    <vehicle id="624" depart="249.60">
        <route edges="E54 E52 E50 E49 E47 E38 E37 E35 E30 E29 E27 E20 E17 E15 E11 E9"/>
    </vehicle>
    <vehicle id="625" depart="250.00">
        <route edges="E35 E30 E29 E27 E20 E17 E15 E11 E9"/>
    </vehicle>
    <vehicle id="626" depart="250.40">
        <route edges="E31 E32 E36 E39 E41"/>
    </vehicle>
    <vehicle id="628" depart="251.20">
        <route edges="E10 E12 E16 E18 E19 E21 E28 E31 E32 E36 E39 E45 E43"/>
    </vehicle>
    <vehicle id="638" depart="255.20">
        <route edges="E37 E35 E30 E29 E27 E20 E17 E15 E11 E9 E2"/>
    </vehicle>
    <vehicle id="639" depart="255.60">
        <route edges="E12 E16 E18 E19 E21 E28 E31 E32 E36 E39 E48 gneE22 E53 E57 E58"/>
    </vehicle>
    <vehicle id="640" depart="256.00">
        <route edges="E40 E42 E38 E37 E35 E30"/>
    </vehicle>
    <vehicle id="641" depart="256.40">
        <route edges="E46 E38 E37 E35 E30 E29 E27"/>
    </vehicle>
    <vehicle id="644" depart="257.60">
        <route edges="E10 E12 E14"/>
    </vehicle>
    <vehicle id="645" depart="258.00">
        <route edges="E26 E25 E23"/>
    </vehicle>
    <vehicle id="647" depart="258.80">
        <route edges="E30 E29 E27 E20 E17 E15"/>
    </vehicle>
    <vehicle id="648" depart="259.20">
        <route edges="E33 E36 E39 E48"/>
    </vehicle>
    <vehicle id="650" depart="260.00">
        <route edges="E49 E47 E38 E37 E35 E30 E29 E27 E20 E17 E15 E11 E9 E7"/>
    </vehicle>
    <vehicle id="652" depart="260.80">
        <route edges="E56 E52 E50 E49 E47 E38 E37 E35 E30 E29 E27"/>
    </vehicle>
    <vehicle id="655" depart="262.00">
        <route edges="E21 E28 E31 E32 E36 E39 E48 gneE22"/>
    </vehicle>
    <vehicle id="657" depart="262.80">
        <route edges="E1 E4 E10 E12 E16 E18 E19 E21 E28 E31 E32 E36 E39 E48 gneE22 E53"/>
    </vehicle>
    <vehicle id="659" depart="263.60">
        <route edges="E47"/>
    </vehicle>
    <vehicle id="660" depart="264.00">
        <route edges="E47 E38 E37 E35 E30 E29 E27 E24"/>
    </vehicle>
    <vehicle id="662" depart="264.80">
        <route edges="E30 E29 E27 E20 E17 E15 E11 E9 E6"/>
    </vehicle>
    <vehicle id="671" depart="268.40">
        <route edges="E33 E36 E39 E45 E43"/>
    </vehicle>
    <vehicle id="672" depart="268.80">
        <route edges="E5 E10 E12 E16 E18 E19 E21 E28 E31 E32 E36 E39 E45 E43"/>
    </vehicle>
    <vehicle id="674" depart="269.60">
        <route edges="E44 E46 E38 E37"/>
    </vehicle>
    <vehicle id="676" depart="270.40">
        <route edges="E37 E35 E30 E29 E27 E20"/>
    </vehicle>
    <vehicle id="680" depart="272.00">
        <route edges="E19 E21 E28"/>
    </vehicle>
    <vehicle id="687" depart="274.80">
        <route edges="E11 E9 E2"/>
    </vehicle>
    <vehicle id="690" depart="276.00">
        <route edges="E5 E10 E12 E16 E18 E19 E21 E28 E31 E32 E34"/>
    </vehicle>
    <vehicle id="691" depart="276.40">
        <route edges="E42 E48 gneE22 E53 E55"/>
    </vehicle>
    <vehicle id="693" depart="277.20">
        <route edges="E40 E42 E38 E37 E35 E30 E29 E27 E20"/>
    </vehicle>
    <vehicle id="695" depart="278.00">
        <route edges="E1 E4 E10 E12 E16 E18 E19 E21 E28 E31 E32 E36 E39 E48"/>
    </vehicle>
    <vehicle id="696" depart="278.40">
        <route edges="E13 E16 E18 E19 E21 E28 E31 E32 E36 E39 E45"/>
    </vehicle>
    <vehicle id="700" depart="280.00">
        <route edges="E28 E31 E32 E34"/>
    </vehicle>
    <vehicle id="703" depart="281.20">
        <route edges="E39 E41"/>
    </vehicle>
    <vehicle id="704" depart="281.60">
        <route edges="E47 E38 E37 E35 E34"/>
    </vehicle>
    <vehicle id="710" depart="284.00">
        <route edges="E29 E27 E20 E17 E15 E11 E9 E7"/>
    </vehicle>
    <vehicle id="713" depart="285.20">
        <route edges="E19 E21 E28"/>
    </vehicle>
    <vehicle id="714" depart="285.60">