<?xml version="1.0" encoding="UTF-8"?>

<!-- generated on 2021-09-29 19:48:27 by Eclipse SUMO duarouter Version 1.9.2
<configuration xmlns:xsi="http://www.w3.org/2001/XMLSchema-instance" xsi:noNamespaceSchemaLocation="http://sumo.dlr.de/xsd/duarouterConfiguration.xsd">

    <input>
        <net-file value="/home/sonic/Desktop/nets/case06/intersection.net.xml"/>
        <route-files value="trips.trips.xml"/>
    </input>

    <output>
        <output-file value="intersection_random17.rou.xml"/>
        <alternatives-output value="intersection_random17.rou.alt.xml"/>
    </output>

    <time>
        <begin value="0"/>
        <end value="18000.0"/>
    </time>

    <report>
        <no-warnings value="true"/>
        <ignore-errors value="true"/>
        <no-step-log value="true"/>
    </report>

</configuration>
-->

<routes xmlns:xsi="http://www.w3.org/2001/XMLSchema-instance" xsi:noNamespaceSchemaLocation="http://sumo.dlr.de/xsd/routes_file.xsd">
    <vehicle id="0" depart="0.00">
        <route edges="E33 E36 E39"/>
    </vehicle>
    <vehicle id="3" depart="1.20">
        <route edges="E44 E46 E48 gneE22 E53 E57"/>
    </vehicle>
    <vehicle id="4" depart="1.60">
        <route edges="E19 E21 E28 E31 E32 E36 E39"/>
    </vehicle>
    <vehicle id="5" depart="2.00">
        <route edges="E56 E52 E50 E49 E47 E38"/>
    </vehicle>
    <vehicle id="9" depart="3.60">
        <route edges="E48 gneE22 E53 E57 E58"/>
    </vehicle>
    <vehicle id="17" depart="6.80">
        <route edges="E52 E50 E49 E47 E38 E37 E35 E30 E29 E27 E20 E17"/>
    </vehicle>
    <vehicle id="18" depart="7.20">
        <route edges="E28 E31 E32 E36 E39 E45 E43"/>
    </vehicle>
    <vehicle id="19" depart="7.60">
        <route edges="E54 E52 E50 E49 E47 E38 E37 E35 E30 E29 E27 E20 E17 E15 E14"/>
    </vehicle>
    <vehicle id="24" depart="9.60">
        <route edges="E31 E32 E36 E39 E41"/>
    </vehicle>
    <vehicle id="25" depart="10.00">
        <route edges="E22 E28 E31 E32 E36 E39 E45 E43"/>
    </vehicle>
    <vehicle id="26" depart="10.40">
        <route edges="E54 E52 E50 E49 E47 E38 E37 E35 E30 E29 E27"/>
    </vehicle>
    <vehicle id="29" depart="11.60">
        <route edges="E56 E55"/>
    </vehicle>
    <vehicle id="30" depart="12.00">
        <route edges="E52"/>
    </vehicle>
    <vehicle id="31" depart="12.40">
        <route edges="E4 E10 E12 E16 E18 E19 E21 E28 E31 E32 E36"/>
    </vehicle>
    <vehicle id="34" depart="13.60">
        <route edges="E50 E49 E47 E38 E37 E35 E30 E29 E27 E20 E17 E15 E11 E9 E2"/>
    </vehicle>
    <vehicle id="37" depart="14.80">
        <route edges="E54 E52 E50 E49 E47 E38 E37 E35 E30 E29 E27 E20 E17"/>
    </vehicle>
    <vehicle id="38" depart="15.20">
        <route edges="E25 E23"/>
    </vehicle>
    <vehicle id="39" depart="15.60">
        <route edges="E42 E38 E37 E35 E30 E29 E27 E20 E17 E15 E14"/>
    </vehicle>
    <vehicle id="44" depart="17.60">
        <route edges="E54 E52 E50 E49 E47 E38 E37 E35 E30 E29 E27 E20"/>
    </vehicle>
    <vehicle id="45" depart="18.00">
        <route edges="E54 E52 E50 E49 E47 E38"/>
    </vehicle>
    <vehicle id="46" depart="18.40">
        <route edges="E13 E11"/>
    </vehicle>
    <vehicle id="48" depart="19.20">
        <route edges="E42 E48 gneE22 E53"/>
    </vehicle>
    <vehicle id="50" depart="20.00">
        <route edges="E1 E4 E10"/>
    </vehicle>
    <vehicle id="51" depart="20.40">
        <route edges="E21 E28 E31 E32 E36 E39 E45 E43"/>
    </vehicle>
    <vehicle id="52" depart="20.80">
        <route edges="E26 E25 E28 E31"/>
    </vehicle>
    <vehicle id="54" depart="21.60">
        <route edges="E56 E52"/>
    </vehicle>
    <vehicle id="63" depart="25.20">
        <route edges="E50 E49 E47 E38 E37 E35 E30 E29 E27 E20"/>
    </vehicle>
    <vehicle id="68" depart="27.20">
        <route edges="E10 E12 E16 E18 E19 E21 E28 E31 E32 E36 E39 E45"/>
    </vehicle>
    <vehicle id="71" depart="28.40">
        <route edges="E29 E27 E20 E17 E15 E11 E9 E2 E0"/>
    </vehicle>
    <vehicle id="75" depart="30.00">
        <route edges="E1 E4 E7"/>
    </vehicle>
    <vehicle id="79" depart="31.60">
        <route edges="E26 E25 E20 E17 E15 E11 E9 E2 E0"/>
    </vehicle>
    <vehicle id="83" depart="33.20">
        <route edges="E54 E52 E50 E49 E47 E38 E37 E35"/>
    </vehicle>
    <vehicle id="88" depart="35.20">
        <route edges="E26 E25"/>
    </vehicle>
    <vehicle id="90" depart="36.00">
        <route edges="E37 E35 E30 E29 E27 E20 E17 E15 E14"/>
    </vehicle>
    <vehicle id="91" depart="36.40">
        <route edges="E21 E28 E31 E32 E36 E39 E48 gneE22 E53 E57 E58"/>
    </vehicle>
    <vehicle id="92" depart="36.80">
        <route edges="E10 E12 E16 E18 E19 E21 E28 E31 E32 E34"/>
    </vehicle>
    <vehicle id="96" depart="38.40">
        <route edges="E30 E29 E27 E20 E17 E15 E11 E9 E6"/>
    </vehicle>
    <vehicle id="99" depart="39.60">
        <route edges="E44 E46 E48 gneE22 E53 E57"/>
    </vehicle>
    <vehicle id="104" depart="41.60">
        <route edges="E8 E10 E12 E16 E18 E19 E21 E28 E31 E32 E36 E39 E48 gneE22 E53 E57"/>
    </vehicle>
    <vehicle id="108" depart="43.20">
        <route edges="E46 E38"/>
    </vehicle>
    <vehicle id="110" depart="44.00">
        <route edges="E42 E38 E37 E35 E30 E29 E27 E20"/>
    </vehicle>
    <vehicle id="111" depart="44.40">
        <route edges="E38 E37 E35 E30 E29"/>
    </vehicle>
    <vehicle id="112" depart="44.80">
        <route edges="E26 E25 E28 E31 E32 E36 E39 E48 gneE22 E53 E57"/>
    </vehicle>
    <vehicle id="115" depart="46.00">
        <route edges="E13 E16 E18 E19 E21 E28 E31"/>
    </vehicle>
    <vehicle id="118" depart="47.20">
        <route edges="E13 E16 E18 E19 E21 E28 E31 E32 E36 E39"/>
    </vehicle>
    <vehicle id="124" depart="49.60">
        <route edges="E5 E10 E12 E16 E18 E19 E21 E28 E31 E32 E36"/>
    </vehicle>
    <vehicle id="125" depart="50.00">
        <route edges="E42 E38 E37 E35 E30 E29 E27"/>
    </vehicle>
    <vehicle id="131" depart="52.40">
        <route edges="E10 E12 E14"/>
    </vehicle>
    <vehicle id="133" depart="53.20">
        <route edges="E30 E29 E27 E20 E17 E15 E11 E9 E2"/>
    </vehicle>
    <vehicle id="134" depart="53.60">
        <route edges="E18 E19 E21 E28 E31 E32 E36 E39 E48 gneE22"/>
    </vehicle>
    <vehicle id="148" depart="59.20">
        <route edges="E5 E10 E12 E16 E18 E19 E21 E24"/>
    </vehicle>
    <vehicle id="149" depart="59.60">
        <route edges="gneE22 E53 E57 E58"/>
    </vehicle>
    <vehicle id="150" depart="60.00">
        <route edges="E21 E28 E31 E32 E36 E39 E48 gneE22 E53"/>
    </vehicle>
    <vehicle id="152" depart="60.80">
        <route edges="E10 E12 E16 E18 E19 E21 E28 E31 E32"/>
    </vehicle>
    <vehicle id="153" depart="61.20">
        <route edges="E44 E46 E48 gneE22 E53"/>
    </vehicle>
    <vehicle id="156" depart="62.40">
        <route edges="E49 E47 E41"/>
    </vehicle>
    <vehicle id="157" depart="62.80">
        <route edges="E10 E12 E16 E18 E19 E21 E28"/>
    </vehicle>
    <vehicle id="161" depart="64.40">
        <route edges="E56 E52 E50 E49 E47 E38 E37 E35 E34"/>
    </vehicle>
    <vehicle id="162" depart="64.80">
        <route edges="E54 E52 E50 E49 E47 E38 E37 E35 E30 E29 E27 E20 E17 E15 E11 E9 E2"/>
    </vehicle>
    <vehicle id="163" depart="65.20">
        <route edges="E40 E42 E38 E37 E35 E30 E29 E27 E20 E17 E15 E14"/>
    </vehicle>
    <vehicle id="164" depart="65.60">
        <route edges="E50 E49 E47 E38 E37 E35 E30 E29 E27 E20 E17 E15 E11 E9 E2 E0"/>
    </vehicle>
    <vehicle id="172" depart="68.80">
        <route edges="E50 E49 E47 E38 E37 E35 E30 E29 E27 E20 E17"/>
    </vehicle>
    <vehicle id="174" depart="69.60">
        <route edges="E50 E49 E47 E38 E37 E35 E30 E29 E27"/>
    </vehicle>
    <vehicle id="176" depart="70.40">
        <route edges="E33 E36 E39 E45"/>
    </vehicle>
    <vehicle id="177" depart="70.80">
        <route edges="E1 E4 E6"/>
    </vehicle>
    <vehicle id="179" depart="71.60">
        <route edges="E50 E49 E47 E38 E37 E35 E30 E29 E27"/>
    </vehicle>
    <vehicle id="181" depart="72.40">
        <route edges="E30 E29 E27 E20 E17 E15 E11 E9 E7"/>
    </vehicle>
    <vehicle id="182" depart="72.80">
        <route edges="E12 E16 E18 E19"/>
    </vehicle>
    <vehicle id="183" depart="73.20">
        <route edges="gneE22"/>
    </vehicle>
    <vehicle id="185" depart="74.00">
        <route edges="E12 E16 E18 E19 E21 E28 E31 E32 E36 E39 E48 gneE22 E53 E55"/>
    </vehicle>
    <vehicle id="195" depart="78.00">
        <route edges="E4 E10 E12 E16 E18 E19 E21 E28 E31 E32 E36 E39 E48 gneE22 E53 E57 E58"/>
    </vehicle>
    <vehicle id="197" depart="78.80">
        <route edges="E56 E52 E50 E49 E47 E38 E37 E35 E30 E29 E27 E24"/>
    </vehicle>
    <vehicle id="198" depart="79.20">
        <route edges="E56 E52 E50 E49 E47 E38 E37 E35 E30 E29 E27 E20 E17 E15 E11 E9 E2 E0"/>
    </vehicle>
    <vehicle id="200" depart="80.00">
        <route edges="E15 E11 E9 E2"/>
    </vehicle>
    <vehicle id="201" depart="80.40">
        <route edges="E30 E29 E27"/>
    </vehicle>
    <vehicle id="205" depart="82.00">
        <route edges="E48 gneE22 E53"/>
    </vehicle>
    <vehicle id="207" depart="82.80">
        <route edges="E31 E32 E34"/>
    </vehicle>
    <vehicle id="210" depart="84.00">
        <route edges="E49 E47 E38 E37 E35 E30 E29 E27 E20 E17 E15 E11 E9"/>
    </vehicle>
    <vehicle id="211" depart="84.40">
        <route edges="E52 E50 E49 E47 E38 E37"/>
    </vehicle>
    <vehicle id="215" depart="86.00">
        <route edges="E25 E20 E17 E15 E14"/>
    </vehicle>
    <vehicle id="223" depart="89.20">
        <route edges="E11"/>
    </vehicle>
    <vehicle id="230" depart="92.00">
        <route edges="E4 E10 E12 E16 E18 E19 E21 E28 E31 E32 E36 E39 E48 gneE22 E53 E57 E58"/>
    </vehicle>
    <vehicle id="235" depart="94.00">
        <route edges="E52 E50 E49 E47"/>
    </vehicle>
    <vehicle id="236" depart="94.40">
        <route edges="E50 E49 E47 E38 E37 E35 E30 E29 E27 E20 E17 E15 E11 E9 E2 E0"/>
    </vehicle>
    <vehicle id="237" depart="94.80">
        <route edges="E32 E36 E39 E45 E43"/>
    </vehicle>
    <vehicle id="238" depart="95.20">
        <route edges="E13 E16 E18 E19 E21 E28 E31 E32 E34"/>
    </vehicle>
    <vehicle id="241" depart="96.40">
        <route edges="E25 E28 E31 E32 E36 E39 E41"/>
    </vehicle>
    <vehicle id="245" depart="98.00">
        <route edges="E37"/>
    </vehicle>
    <vehicle id="247" depart="98.80">
        <route edges="E53 E57 E58"/>
    </vehicle>
    <vehicle id="251" depart="100.40">
        <route edges="E54 E52 E50 E49 E47 E45 E43"/>
    </vehicle>
    <vehicle id="254" depart="101.60">
        <route edges="E37 E35 E30 E29 E27 E20 E17 E15 E11"/>
    </vehicle>
    <vehicle id="255" depart="102.00">
        <route edges="E25 E28 E31 E32 E36 E39 E48 gneE22"/>
    </vehicle>
    <vehicle id="260" depart="104.00">
        <route edges="E36 E39 E45"/>
    </vehicle>
    <vehicle id="261" depart="104.40">
        <route edges="E5 E10 E12 E16 E18 E19 E21 E28 E31 E32 E36 E39 E41"/>
    </vehicle>
    <vehicle id="262" depart="104.80">
        <route edges="E8 E10 E12 E14"/>
    </vehicle>
    <vehicle id="267" depart="106.80">
        <route edges="E19 E21 E28 E31 E32"/>
    </vehicle>
    <vehicle id="271" depart="108.40">
        <route edges="E4 E10 E12 E16 E18 E19 E21 E28 E31 E32 E36 E39 E48 gneE22"/>
    </vehicle>
    <vehicle id="274" depart="109.60">
        <route edges="E4 E10 E12 E16 E18 E19 E21 E28 E31 E32 E36 E39 E45 E43"/>
    </vehicle>
    <vehicle id="275" depart="110.00">
        <route edges="E30 E29 E27 E20 E17 E15 E11"/>
    </vehicle>
    <vehicle id="278" depart="111.20">
        <route edges="E29 E27 E20 E17 E15 E11 E9"/>
    </vehicle>
    <vehicle id="282" depart="112.80">
        <route edges="E33 E30 E29 E27 E20 E17 E15 E11 E9 E2"/>
    </vehicle>
    <vehicle id="285" depart="114.00">
        <route edges="E48 gneE22 E53 E57"/>
    </vehicle>
    <vehicle id="287" depart="114.80">
        <route edges="E4 E10 E12 E16 E18 E19 E21 E28 E31 E32"/>
    </vehicle>
    <vehicle id="289" depart="115.60">
        <route edges="E38 E37 E35 E30 E29"/>
    </vehicle>
    <vehicle id="291" depart="116.40">
        <route edges="E18"/>
    </vehicle>
    <vehicle id="294" depart="117.60">
        <route edges="E56 E52 E50 E49 E47 E38 E37 E35 E30 E29 E27 E20"/>
    </vehicle>
    <vehicle id="295" depart="118.00">
        <route edges="E42 E38 E37"/>
    </vehicle>
    <vehicle id="298" depart="119.20">
        <route edges="E33 E36 E39 E48 gneE22"/>
    </vehicle>
    <vehicle id="299" depart="119.60">
        <route edges="E8 E10 E12 E16 E18 E19 E21 E28 E31 E32 E36 E39"/>
    </vehicle>
    <vehicle id="300" depart="120.00">
        <route edges="E1 E4 E10 E12 E16 E18 E19 E21 E28 E31 E32 E36 E39 E45 E43"/>
    </vehicle>
    <vehicle id="301" depart="120.40">
        <route edges="E54 E52 E50 E49 E47 E41"/>
    </vehicle>
    <vehicle id="304" depart="121.60">
        <route edges="E47 E38 E37 E35 E30"/>
    </vehicle>
    <vehicle id="305" depart="122.00">
        <route edges="E52 E50 E49 E47 E38 E37 E35"/>
    </vehicle>
    <vehicle id="306" depart="122.40">
        <route edges="E32"/>
    </vehicle>
    <vehicle id="307" depart="122.80">
        <route edges="E44 E46 E38 E37 E35 E30 E29 E27"/>
    </vehicle>
    <vehicle id="309" depart="123.60">
        <route edges="E19 E21 E28 E31 E32 E36 E39 E48 gneE22 E53 E57 E58"/>
    </vehicle>
    <vehicle id="310" depart="124.00">
        <route edges="E42 E38 E37 E35 E34"/>
    </vehicle>
    <vehicle id="318" depart="127.20">
        <route edges="E26 E25 E28 E31"/>
    </vehicle>
    <vehicle id="319" depart="127.60">
        <route edges="E25 E28 E31"/>
    </vehicle>
    <vehicle id="327" depart="130.80">
        <route edges="E19 E21 E28 E31 E32 E36 E39 E48 gneE22"/>
    </vehicle>
    <vehicle id="328" depart="131.20">
        <route edges="E5 E10 E12 E16 E18 E19 E21 E28 E31 E32 E36 E39 E48 gneE22 E53 E57"/>
    </vehicle>
    <vehicle id="334" depart="133.60">
        <route edges="E50 E49 E47"/>
    </vehicle>
    <vehicle id="338" depart="135.20">
        <route edges="E12 E16 E18 E19 E21 E28 E31 E32"/>
    </vehicle>
    <vehicle id="339" depart="135.60">
        <route edges="E26 E25 E28 E31 E32 E36 E39 E45"/>
    </vehicle>
    <vehicle id="340" depart="136.00">
        <route edges="E33 E30 E29 E27 E20 E17 E15 E11 E9"/>
    </vehicle>
    <vehicle id="342" depart="136.80">
        <route edges="E52 E50 E49 E47 E38 E37 E35 E30"/>
    </vehicle>
    <vehicle id="343" depart="137.20">
        <route edges="E49"/>
    </vehicle>
    <vehicle id="347" depart="138.80">
        <route edges="E46 E48 gneE22 E53 E57 E58"/>
    </vehicle>
    <vehicle id="349" depart="139.60">
        <route edges="E31 E32 E36 E39 E45 E43"/>
    </vehicle>
    <vehicle id="351" depart="140.40">
        <route edges="E28 E31 E32 E36 E39 E41"/>
    </vehicle>
    <vehicle id="352" depart="140.80">
        <route edges="E4 E10 E12 E16 E18 E19 E21 E28 E31 E32 E36 E39 E48 gneE22 E53 E57"/>
    </vehicle>
    <vehicle id="355" depart="142.00">
        <route edges="E52 E50 E49 E47"/>
    </vehicle>
    <vehicle id="357" depart="142.80">
        <route edges="E13 E11"/>
    </vehicle>
    <vehicle id="360" depart="144.00">
        <route edges="E54 E52 E50 E49 E47 E38 E37 E35 E30 E29 E27 E20 E17 E15 E11 E9 E7"/>
    </vehicle>
    <vehicle id="361" depart="144.40">
        <route edges="E30 E29 E27 E20"/>
    </vehicle>
    <vehicle id="362" depart="144.80">
        <route edges="E44 E46"/>
    </vehicle>
    <vehicle id="365" depart="146.00">
        <route edges="E21 E28 E31 E32 E36 E39 E48 gneE22 E53 E55"/>
    </vehicle>
    <vehicle id="369" depart="147.60">
        <route edges="E28 E31 E32 E36 E39 E45 E43"/>
    </vehicle>
    <vehicle id="373" depart="149.20">
        <route edges="E16 E18 E19 E21 E28 E31 E32 E36 E39 E41"/>
    </vehicle>
    <vehicle id="374" depart="149.60">
        <route edges="E50 E49 E47 E38 E37 E35 E30 E29 E27 E20 E17"/>
    </vehicle>
    <vehicle id="376" depart="150.40">
        <route edges="E52 E50 E49 E47 E38 E37 E35 E30 E29 E27 E20 E17 E15 E11 E9 E6"/>
    </vehicle>
    <vehicle id="377" depart="150.80">
        <route edges="E18 E19"/>
    </vehicle>
    <vehicle id="379" depart="151.60">
        <route edges="E19 E21 E28 E31 E32"/>
    </vehicle>
    <vehicle id="382" depart="152.80">
        <route edges="E39 E45 E43"/>
    </vehicle>
    <vehicle id="385" depart="154.00">
        <route edges="E37 E35 E30 E29 E27 E20 E17 E15 E11 E9 E6"/>
    </vehicle>
    <vehicle id="386" depart="154.40">
        <route edges="E13 E16 E18 E19 E21 E28 E31 E32 E36 E39 E45 E43"/>
    </vehicle>
    <vehicle id="387" depart="154.80">
        <route edges="E20 E17 E15 E11"/>
    </vehicle>
    <vehicle id="388" depart="155.20">
        <route edges="E10 E12 E16 E18 E19 E21 E28 E31 E32 E36 E39 E48"/>
    </vehicle>
    <vehicle id="389" depart="155.60">
        <route edges="E10 E12 E16 E18 E19 E21 E28 E31"/>
    </vehicle>
    <vehicle id="391" depart="156.40">
        <route edges="E47 E38 E37 E35 E30 E29 E27"/>
    </vehicle>
    <vehicle id="392" depart="156.80">
        <route edges="E48 gneE22 E53"/>
    </vehicle>
    <vehicle id="393" depart="157.20">
        <route edges="E26 E25 E28 E31 E32 E36 E39 E45 E43"/>
    </vehicle>
    <vehicle id="395" depart="158.00">
        <route edges="E22 E28 E31 E32 E36 E39 E48"/>
    </vehicle>
    <vehicle id="398" depart="159.20">
        <route edges="E35 E30 E29 E27 E20"/>
    </vehicle>
    <vehicle id="400" depart="160.00">
        <route edges="E8 E10 E12 E16"/>
    </vehicle>
    <vehicle id="401" depart="160.40">
        <route edges="E54 E52 E50 E49 E47 E38 E37 E35 E30 E29 E27 E23"/>
    </vehicle>
    <vehicle id="402" depart="160.80">
        <route edges="E42 E38 E37 E35 E30 E29 E27 E20 E17 E15 E11"/>
    </vehicle>
    <vehicle id="404" depart="161.60">
        <route edges="E21 E28 E31 E32 E34"/>
    </vehicle>
    <vehicle id="407" depart="162.80">
        <route edges="E39"/>
    </vehicle>
    <vehicle id="408" depart="163.20">
        <route edges="E12 E16 E18 E19 E21 E28 E31 E32 E36 E39 E48 gneE22 E53 E55"/>
    </vehicle>
    <vehicle id="411" depart="164.40">
        <route edges="E22 E20"/>
    </vehicle>
    <vehicle id="413" depart="165.20">
        <route edges="E18 E19 E21 E23"/>
    </vehicle>
    <vehicle id="414" depart="165.60">
        <route edges="E52 E50 E49 E47 E38 E37 E35 E30 E29 E27 E20"/>
    </vehicle>
    <vehicle id="421" depart="168.40">
        <route edges="E16 E18 E19 E21 E28 E31"/>
    </vehicle>
    <vehicle id="422" depart="168.80">
        <route edges="E17 E15 E14"/>
    </vehicle>
    <vehicle id="423" depart="169.20">
        <route edges="E47 E45"/>
    </vehicle>
    <vehicle id="425" depart="170.00">
        <route edges="E25 E20 E17 E15 E11 E9 E6"/>
    </vehicle>
    <vehicle id="431" depart="172.40">
        <route edges="E16 E18 E19 E21 E28 E31 E32 E36 E39"/>
    </vehicle>
    <vehicle id="433" depart="173.20">
        <route edges="E5 E10 E12 E16 E18 E19 E21 E24"/>
    </vehicle>
    <vehicle id="436" depart="174.40">
        <route edges="E9 E2"/>
    </vehicle>
    <vehicle id="446" depart="178.40">
        <route edges="E56 E52 E50 E49 E47 E38 E37 E35 E30 E29 E27 E20 E17"/>
    </vehicle>
    <vehicle id="447" depart="178.80">
        <route edges="E38 E37 E35 E30 E29 E27 E20 E17"/>
    </vehicle>
    <vehicle id="448" depart="179.20">
        <route edges="E4 E10 E12 E16 E18 E19 E21 E28 E31 E32 E36 E39 E48"/>
    </vehicle>
    <vehicle id="453" depart="181.20">
        <route edges="E10 E12 E16 E18 E19 E21 E28 E31 E32 E36 E39 E48 gneE22 E53 E55"/>
    </vehicle>
    <vehicle id="457" depart="182.80">
        <route edges="E20 E17 E15 E11 E9 E6"/>
    </vehicle>
    <vehicle id="458" depart="183.20">
        <route edges="E56 E52 E50 E49 E47 E38 E37 E35 E30 E29 E27 E20 E17 E15 E11"/>
    </vehicle>
    <vehicle id="459" depart="183.60">
        <route edges="E25 E20 E17 E15 E11"/>
    </vehicle>
    <vehicle id="460" depart="184.00">
        <route edges="E49 E47 E38 E37 E35"/>
    </vehicle>
    <vehicle id="461" depart="184.40">
        <route edges="E54 E52 E50 E49 E47 E38 E37 E35 E30 E29 E27 E20 E17 E15 E11 E9"/>
    </vehicle>
    <vehicle id="464" depart="185.60">
        <route edges="E22 E28 E31 E32 E36 E39 E48 gneE22 E53 E55"/>
    </vehicle>
    <vehicle id="465" depart="186.00">
        <route edges="E52 E50"/>
    </vehicle>
    <vehicle id="467" depart="186.80">
        <route edges="E42 E38 E37 E35 E30 E29 E27 E23"/>
    </vehicle>
    <vehicle id="470" depart="188.00">
        <route edges="E30 E29 E27 E20 E17 E15 E11"/>
    </vehicle>
    <vehicle id="475" depart="190.00">
        <route edges="E8 E10 E12 E16 E18 E19 E21 E28 E31 E32 E36 E39 E45"/>
    </vehicle>
    <vehicle id="476" depart="190.40">
        <route edges="E40 E42 E38"/>
    </vehicle>
    <vehicle id="479" depart="191.60">
        <route edges="E13 E11 E9 E6"/>
    </vehicle>
    <vehicle id="485" depart="194.00">
        <route edges="E5 E10 E12 E16 E18 E19 E21 E28 E31 E32 E36 E39 E48 gneE22 E53"/>
    </vehicle>
    <vehicle id="486" depart="194.40">
        <route edges="E36 E39"/>
    </vehicle>
    <vehicle id="487" depart="194.80">
        <route edges="E31 E32 E36 E39 E45"/>
    </vehicle>
    <vehicle id="490" depart="196.00">
        <route edges="E13 E16 E18 E19 E21 E23"/>
    </vehicle>
    <vehicle id="495" depart="198.00">
        <route edges="E13 E16 E18 E19 E21"/>
    </vehicle>
    <vehicle id="496" depart="198.40">
        <route edges="E46 E48 gneE22 E53 E55"/>
    </vehicle>
    <vehicle id="498" depart="199.20">
        <route edges="E44 E46 E38 E37 E35 E30 E29 E27 E23"/>
    </vehicle>
    <vehicle id="500" depart="200.00">
        <route edges="E18 E19 E21 E28 E31 E32 E36 E39 E48 gneE22 E53 E57 E58"/>
    </vehicle>
    <vehicle id="501" depart="200.40">
        <route edges="E10 E12 E16 E18 E19 E21 E28"/>
    </vehicle>
    <vehicle id="506" depart="202.40">
        <route edges="E19 E21 E28 E31 E32 E36 E39 E48 gneE22 E53 E57"/>
    </vehicle>
    <vehicle id="507" depart="202.80">
        <route edges="E52 E50 E49 E47 E41"/>
    </vehicle>
    <vehicle id="509" depart="203.60">
        <route edges="E37 E35 E30 E29 E27 E20 E17 E15 E11 E9 E6"/>
    </vehicle>
    <vehicle id="512" depart="204.80">
        <route edges="E36"/>
    </vehicle>
    <vehicle id="516" depart="206.40">
        <route edges="E26 E25 E28"/>
    </vehicle>
    <vehicle id="519" depart="207.60">
        <route edges="E42"/>
    </vehicle>
    <vehicle id="527" depart="210.80">
        <route edges="E25 E20 E17 E15 E11"/>
    </vehicle>
    <vehicle id="528" depart="211.20">
        <route edges="E56 E52 E50 E49 E47 E38 E37 E35 E30 E29 E27 E24"/>
    </vehicle>
    <vehicle id="530" depart="212.00">
        <route edges="E52 E50 E49 E47 E38 E37 E35 E30 E29 E27 E24"/>
    </vehicle>
    <vehicle id="532" depart="212.80">
        <route edges="E25 E20 E17 E15 E11 E9 E2 E0"/>
    </vehicle>
    <vehicle id="535" depart="214.00">
        <route edges="E17 E15 E11 E9 E2 E0"/>
    </vehicle>
    <vehicle id="538" depart="215.20">
        <route edges="E28 E31 E32 E36 E39 E48 gneE22 E53 E57"/>
    </vehicle>
    <vehicle id="540" depart="216.00">
        <route edges="E22 E28 E31 E32 E36 E39 E45"/>
    </vehicle>
    <vehicle id="543" depart="217.20">
        <route edges="E10 E12 E16 E18 E19 E21 E28 E31 E32 E36 E39 E45 E43"/>
    </vehicle>
    <vehicle id="544" depart="217.60">
        <route edges="E8 E10 E12 E16 E18 E19 E21 E28 E31 E32 E36 E39 E48 gneE22 E53 E55"/>
    </vehicle>
    <vehicle id="546" depart="218.40">
        <route edges="E8 E10 E12 E16"/>
    </vehicle>
    <vehicle id="547" depart="218.80">
        <route edges="E33 E36 E39 E48 gneE22 E53 E55"/>
    </vehicle>
    <vehicle id="548" depart="219.20">
        <route edges="E33 E30"/>
    </vehicle>
    <vehicle id="550" depart="220.00">
        <route edges="E13 E16 E18 E19 E21 E24"/>
    </vehicle>
    <vehicle id="551" depart="220.40">
        <route edges="E19 E21 E23"/>
    </vehicle>
    <vehicle id="552" depart="220.80">
        <route edges="E25 E28 E31 E32 E36 E39 E41"/>
    </vehicle>
    <vehicle id="553" depart="221.20">
        <route edges="E40 E42 E38"/>
    </vehicle>
    <vehicle id="556" depart="222.40">
        <route edges="E29 E27 E20 E17 E15 E11"/>
    </vehicle>
    <vehicle id="557" depart="222.80">
        <route edges="E38 E37 E35 E34"/>
    </vehicle>
    <vehicle id="560" depart="224.00">
        <route edges="E10 E12 E16 E18 E19 E21 E28 E31 E32 E36 E39 E45 E43"/>
    </vehicle>
    <vehicle id="561" depart="224.40">
        <route edges="E50 E49 E47 E38 E37 E35 E30"/>
    </vehicle>
    <vehicle id="562" depart="224.80">
        <route edges="E46 E48 gneE22"/>
    </vehicle>
    <vehicle id="564" depart="225.60">
        <route edges="E49 E47 E38 E37 E35 E30 E29 E27 E20 E17 E15 E11 E9"/>
    </vehicle>
    <vehicle id="566" depart="226.40">
        <route edges="E22 E28 E31 E32 E36 E39 E48 gneE22"/>
    </vehicle>
    <vehicle id="567" depart="226.80">
        <route edges="E31 E32 E36 E39 E45"/>
    </vehicle>
    <vehicle id="569" depart="227.60">
        <route edges="E18 E19 E21 E28 E31 E32 E36 E39 E45"/>
    </vehicle>
    <vehicle id="572" depart="228.80">
        <route edges="E22 E28 E31 E32 E36"/>
    </vehicle>
    <vehicle id="573" depart="229.20">
        <route edges="E26 E25 E28 E31 E32 E36 E39 E48 gneE22 E53 E57"/>
    </vehicle>
    <vehicle id="575" depart="230.00">
        <route edges="E49 E47 E41"/>
    </vehicle>
    <vehicle id="577" depart="230.80">
        <route edges="E40 E42 E38 E37 E35 E30 E29 E27 E20 E17 E15 E14"/>
    </vehicle>
    <vehicle id="583" depart="233.20">
        <route edges="E46 E38 E37 E35 E30 E29 E27 E20 E17 E15 E11 E9 E6"/>
    </vehicle>
    <vehicle id="584" depart="233.60">
        <route edges="E50 E49 E47 E38 E37 E35 E30 E29 E27 E20 E17 E15 E11 E9 E7"/>
    </vehicle>
    <vehicle id="585" depart="234.00">
        <route edges="E44 E46 E38 E37 E35 E30 E29 E27 E20 E17 E15 E11 E9 E2"/>
    </vehicle>
    <vehicle id="594" depart="237.60">
        <route edges="E2"/>
    </vehicle>
    <vehicle id="595" depart="238.00">
        <route edges="E18 E19 E21 E28 E31 E32 E36 E39 E48 gneE22 E53 E57"/>
    </vehicle>
    <vehicle id="597" depart="238.80">
        <route edges="E31 E32 E34"/>
    </vehicle>
    <vehicle id="599" depart="239.60">
        <route edges="E49 E47 E38 E37 E35 E30 E29 E27 E20 E17 E15 E11 E9 E6"/>
    </vehicle>
    <vehicle id="600" depart="240.00">
        <route edges="E56 E52 E50 E49 E47 E38 E37 E35 E30 E29 E27 E20 E17 E15 E14"/>
    </vehicle>
    <vehicle id="601" depart="240.40">
        <route edges="E28 E31 E32 E36 E39 E45"/>
    </vehicle>
    <vehicle id="604" depart="241.60">
        <route edges="E26 E25 E20 E17 E15 E14"/>
    </vehicle>
    <vehicle id="605" depart="242.00">
        <route edges="E47 E38 E37 E35 E30 E29 E27 E20 E17 E15 E11 E9 E2 E0"/>
    </vehicle>
    <vehicle id="607" depart="242.80">
        <route edges="E32 E36 E39 E48 gneE22 E53 E57 E58"/>
    </vehicle>
    <vehicle id="608" depart="243.20">
        <route edges="E26 E25 E20"/>
    </vehicle>
    <vehicle id="611" depart="244.40">
        <route edges="E25 E28 E31 E32 E36 E39"/>
    </vehicle>
    <vehicle id="613" depart="245.20">
        <route edges="E26 E25 E20 E17 E15 E11 E9 E2"/>
    </vehicle>
    <vehicle id="615" depart="246.00">
        <route edges="E46 E38 E37 E35 E30 E29 E27 E20 E17 E15"/>
    </vehicle>
    <vehicle id="616" depart="246.40">
        <route edges="E4 E10 E12 E16 E18 E19 E21 E28 E31 E32 E36 E39 E45"/>
    </vehicle>
    <vehicle id="618" depart="247.20">
        <route edges="E5 E10 E12 E16 E18 E19 E21 E28 E31 E32 E36 E39 E45"/>
    </vehicle>
    <vehicle id="624" depart="249.60">
        <route edges="E26 E25 E20 E17 E15 E14"/>
    </vehicle>
    <vehicle id="627" depart="250.80">
        <route edges="E33 E30 E29 E27 E20 E17 E15 E11 E9 E2 E0"/>
    </vehicle>
    <vehicle id="628" depart="251.20">
        <route edges="E19 E21 E28 E31 E32 E36"/>
    </vehicle>
    <vehicle id="630" depart="252.00">
        <route edges="E5 E10 E12 E16 E18 E19 E21"/>
    </vehicle>
    <vehicle id="635" depart="254.00">
        <route edges="E27 E20 E17 E15 E11"/>
    </vehicle>
    <vehicle id="636" depart="254.40">
        <route edges="E48 gneE22 E53"/>
    </vehicle>
    <vehicle id="637" depart="254.80">
        <route edges="E4 E10 E12 E16 E18 E19 E21 E28 E31 E32 E36 E39 E48"/>
    </vehicle>
    <vehicle id="639" depart="255.60">
        <route edges="E18 E19 E21 E28 E31 E32 E36 E39 E48 gneE22 E53 E57 E58"/>
    </vehicle>
    <vehicle id="640" depart="256.00">
        <route edges="E5 E10 E12 E16 E18 E19 E21 E28 E31"/>
    </vehicle>
    <vehicle id="645" depart="258.00">
        <route edges="E46 E38 E37 E35 E30 E29 E27 E20 E17 E15 E14"/>
    </vehicle>
    <vehicle id="648" depart="259.20">
        <route edges="E16 E18 E19 E21 E28 E31 E32 E36 E39 E48"/>
    </vehicle>
    <vehicle id="649" depart="259.60">
        <route edges="E22 E20 E17 E15 E11 E9"/>
    </vehicle>
    <vehicle id="655" depart="262.00">
        <route edges="E4"/>
    </vehicle>
    <vehicle id="657" depart="262.80">
        <route edges="E21 E28 E31 E32 E36 E39"/>
    </vehicle>
    <vehicle id="662" depart="264.80">
        <route edges="E26 E25 E20 E17 E15 E11 E9 E2 E0"/>
    </vehicle>
    <vehicle id="663" depart="265.20">
        <route edges="E5 E10 E12 E16 E18 E19 E21 E28 E31 E32 E36 E39 E45 E43"/>
    </vehicle>
    <vehicle id="665" depart="266.00">
        <route edges="E54 E57"/>
    </vehicle>
    <vehicle id="667" depart="266.80">