<?xml version="1.0" encoding="UTF-8"?>

<!-- generated on 2021-09-29 19:49:23 by Eclipse SUMO duarouter Version 1.9.2
<configuration xmlns:xsi="http://www.w3.org/2001/XMLSchema-instance" xsi:noNamespaceSchemaLocation="http://sumo.dlr.de/xsd/duarouterConfiguration.xsd">

    <input>
        <net-file value="/home/sonic/Desktop/nets/case06/intersection.net.xml"/>
        <route-files value="trips.trips.xml"/>
    </input>

    <output>
        <output-file value="intersection_random45.rou.xml"/>
        <alternatives-output value="intersection_random45.rou.alt.xml"/>
    </output>

    <time>
        <begin value="0"/>
        <end value="18000.0"/>
    </time>

    <report>
        <no-warnings value="true"/>
        <ignore-errors value="true"/>
        <no-step-log value="true"/>
    </report>

</configuration>
-->

<routes xmlns:xsi="http://www.w3.org/2001/XMLSchema-instance" xsi:noNamespaceSchemaLocation="http://sumo.dlr.de/xsd/routes_file.xsd">
    <vehicle id="0" depart="0.00">
        <route edges="E26 E25 E28 E31 E32 E36 E39 E48 gneE22 E53 E57 E58"/>
    </vehicle>
    <vehicle id="1" depart="0.40">
        <route edges="E17 E15 E11 E9"/>
    </vehicle>
    <vehicle id="2" depart="0.80">
        <route edges="E25 E28 E31 E32 E36 E39"/>
    </vehicle>
    <vehicle id="4" depart="1.60">
        <route edges="E1 E4 E10 E12 E16 E18 E19 E21 E28 E31 E32 E36 E39 E48 gneE22 E53"/>
    </vehicle>
    <vehicle id="9" depart="3.60">
        <route edges="E16 E18 E19 E21 E23"/>
    </vehicle>
    <vehicle id="10" depart="4.00">
        <route edges="E10 E12 E16 E18 E19 E21 E28 E31 E32"/>
    </vehicle>
    <vehicle id="12" depart="4.80">
        <route edges="E13 E16 E18 E19 E21 E28 E31"/>
    </vehicle>
    <vehicle id="13" depart="5.20">
        <route edges="E10 E12 E16 E18 E19 E21 E28 E31 E32 E36 E39 E48 gneE22 E53 E57"/>
    </vehicle>
    <vehicle id="14" depart="5.60">
        <route edges="E52 E50 E49 E47 E45"/>
    </vehicle>
    <vehicle id="17" depart="6.80">
        <route edges="E32 E34"/>
    </vehicle>
    <vehicle id="19" depart="7.60">
        <route edges="E17 E15 E11 E9"/>
    </vehicle>
    <vehicle id="20" depart="8.00">
        <route edges="E44 E46 E38 E37 E35 E30 E29 E27 E20 E17 E15 E14"/>
    </vehicle>
    <vehicle id="22" depart="8.80">
        <route edges="E54 E52 E50 E49 E47 E38 E37 E35 E30 E29 E27 E20"/>
    </vehicle>
    <vehicle id="26" depart="10.40">
        <route edges="E38 E37 E35 E30 E29 E27 E23"/>
    </vehicle>
    <vehicle id="27" depart="10.80">
        <route edges="E22 E20"/>
    </vehicle>
    <vehicle id="31" depart="12.40">
        <route edges="E25 E20 E17 E15 E14"/>
    </vehicle>
    <vehicle id="43" depart="17.20">
        <route edges="E17 E15 E11 E9 E6"/>
    </vehicle>
    <vehicle id="45" depart="18.00">
        <route edges="E54 E52 E50 E49 E47 E45 E43"/>
    </vehicle>
    <vehicle id="47" depart="18.80">
        <route edges="E18 E19 E21 E28 E31 E32 E36"/>
    </vehicle>
    <vehicle id="48" depart="19.20">
        <route edges="E11 E9"/>
    </vehicle>
    <vehicle id="51" depart="20.40">
        <route edges="E27 E23"/>
    </vehicle>
    <vehicle id="53" depart="21.20">
        <route edges="E54 E52 E50 E49 E47 E38 E37 E35 E30"/>
    </vehicle>
    <vehicle id="54" depart="21.60">
        <route edges="E48 gneE22"/>
    </vehicle>
    <vehicle id="57" depart="22.80">
        <route edges="E37 E35"/>
    </vehicle>
    <vehicle id="59" depart="23.60">
        <route edges="E1 E4 E10 E12 E16 E18 E19 E21 E28 E31 E32"/>
    </vehicle>
    <vehicle id="62" depart="24.80">
        <route edges="E40 E42 E38 E37 E35 E30 E29 E27 E23"/>
    </vehicle>
    <vehicle id="64" depart="25.60">
        <route edges="E42 E38 E37 E35 E30 E29 E27 E20 E17"/>
    </vehicle>
    <vehicle id="65" depart="26.00">
        <route edges="E22 E28"/>
    </vehicle>
    <vehicle id="68" depart="27.20">
        <route edges="E54 E52 E50 E49 E47"/>
    </vehicle>
    <vehicle id="69" depart="27.60">
        <route edges="E52 E50 E49 E47 E45"/>
    </vehicle>
    <vehicle id="70" depart="28.00">
        <route edges="E29 E27 E20 E17 E15 E11"/>
    </vehicle>
    <vehicle id="75" depart="30.00">
        <route edges="E42 E38 E37 E35 E30"/>
    </vehicle>
    <vehicle id="77" depart="30.80">
        <route edges="E26 E25 E28 E31 E32 E36 E39 E41"/>
    </vehicle>
    <vehicle id="79" depart="31.60">
        <route edges="E25 E20 E17"/>
    </vehicle>
    <vehicle id="82" depart="32.80">
        <route edges="E27 E20 E17"/>
    </vehicle>
    <vehicle id="84" depart="33.60">
        <route edges="E48 gneE22 E53 E55"/>
    </vehicle>
    <vehicle id="85" depart="34.00">
        <route edges="E54 E52"/>
    </vehicle>
    <vehicle id="91" depart="36.40">
        <route edges="E12 E16 E18 E19 E21 E28 E31 E32 E36 E39 E48 gneE22 E53 E57"/>
    </vehicle>
    <vehicle id="94" depart="37.60">
        <route edges="E37 E35 E30 E29"/>
    </vehicle>
    <vehicle id="95" depart="38.00">
        <route edges="E47 E38 E37 E35 E30 E29 E27 E20 E17 E15 E11 E9 E6"/>
    </vehicle>
    <vehicle id="96" depart="38.40">
        <route edges="E49 E47 E38 E37 E35 E30 E29 E27 E20 E17 E15 E11"/>
    </vehicle>
    <vehicle id="102" depart="40.80">
        <route edges="E30"/>
    </vehicle>
    <vehicle id="104" depart="41.60">
        <route edges="E12"/>
    </vehicle>
    <vehicle id="106" depart="42.40">
        <route edges="E28 E31 E32 E36 E39 E48"/>
    </vehicle>
    <vehicle id="109" depart="43.60">
        <route edges="E15 E14"/>
    </vehicle>
    <vehicle id="116" depart="46.40">
        <route edges="E12 E16 E18 E19 E21"/>
    </vehicle>
    <vehicle id="118" depart="47.20">
        <route edges="E17 E15 E11 E9 E7"/>
    </vehicle>
    <vehicle id="120" depart="48.00">
        <route edges="E16 E18 E19 E21 E28 E31 E32 E36 E39 E48 gneE22"/>
    </vehicle>
    <vehicle id="124" depart="49.60">
        <route edges="E54 E52 E50 E49 E47 E38 E37 E35 E30 E29 E27 E20 E17 E15 E14"/>
    </vehicle>
    <vehicle id="129" depart="51.60">
        <route edges="E1 E4 E10 E12 E16 E18 E19 E21 E28 E31 E32 E36 E39 E48 gneE22 E53 E55"/>
    </vehicle>
    <vehicle id="130" depart="52.00">
        <route edges="E50 E49 E47 E38 E37"/>
    </vehicle>
    <vehicle id="134" depart="53.60">
        <route edges="E50 E49 E47 E38 E37 E35 E30 E29 E27 E20 E17 E15 E11 E9 E6"/>
    </vehicle>
    <vehicle id="139" depart="55.60">
        <route edges="E22 E20 E17 E15 E14"/>
    </vehicle>
    <vehicle id="142" depart="56.80">
        <route edges="E15 E11 E9 E2"/>
    </vehicle>
    <vehicle id="143" depart="57.20">
        <route edges="E19 E21 E28 E31 E32 E36 E39 E48 gneE22 E53 E55"/>
    </vehicle>
    <vehicle id="148" depart="59.20">
        <route edges="E29 E27 E20 E17 E15 E11 E9 E6"/>
    </vehicle>
    <vehicle id="150" depart="60.00">
        <route edges="E46 E38 E37 E35 E30 E29 E27 E20 E17 E15 E11"/>
    </vehicle>
    <vehicle id="161" depart="64.40">
        <route edges="E44 E46 E48 gneE22 E53"/>
    </vehicle>
    <vehicle id="167" depart="66.80">
        <route edges="E20"/>
    </vehicle>
    <vehicle id="168" depart="67.20">
        <route edges="E33 E30 E29 E27 E20 E17 E15 E11 E9"/>
    </vehicle>
    <vehicle id="172" depart="68.80">
        <route edges="E4 E10 E12 E16 E18 E19 E21 E28 E31 E32 E36 E39 E48"/>
    </vehicle>
    <vehicle id="175" depart="70.00">
        <route edges="E46 E48 gneE22"/>
    </vehicle>
    <vehicle id="176" depart="70.40">
        <route edges="E16 E18 E19 E21 E28 E31 E32 E34"/>
    </vehicle>
    <vehicle id="178" depart="71.20">
        <route edges="E15 E11 E9 E7"/>
    </vehicle>
    <vehicle id="179" depart="71.60">
        <route edges="E54 E52 E50 E49 E47 E38 E37 E35 E30 E29 E27"/>
    </vehicle>
    <vehicle id="181" depart="72.40">
        <route edges="E29 E27 E20 E17 E15 E11 E9 E6"/>
    </vehicle>
    <vehicle id="182" depart="72.80">
        <route edges="E33 E36"/>
    </vehicle>
    <vehicle id="186" depart="74.40">
        <route edges="E26 E25 E28 E31 E32 E36"/>
    </vehicle>
    <vehicle id="188" depart="75.20">
        <route edges="E35 E34"/>
    </vehicle>
    <vehicle id="189" depart="75.60">
        <route edges="E49 E47 E38 E37 E35 E30 E29 E27 E20 E17 E15 E11"/>
    </vehicle>
    <vehicle id="196" depart="78.40">
        <route edges="E35 E30 E29"/>
    </vehicle>
    <vehicle id="198" depart="79.20">
        <route edges="E54 E52 E50 E49 E47 E38 E37 E35 E30 E29 E27 E20 E17 E15 E11 E9"/>
    </vehicle>
    <vehicle id="201" depart="80.40">
        <route edges="E33 E36 E39 E48 gneE22 E53 E55"/>
    </vehicle>
    <vehicle id="202" depart="80.80">
        <route edges="E22 E28 E31 E32"/>
    </vehicle>
    <vehicle id="205" depart="82.00">
        <route edges="E4 E10 E12 E16 E18 E19 E21 E24"/>
    </vehicle>
    <vehicle id="211" depart="84.40">
        <route edges="E25 E28"/>
    </vehicle>
    <vehicle id="212" depart="84.80">
        <route edges="E5 E10 E12 E16 E18 E19 E21 E23"/>
    </vehicle>
    <vehicle id="215" depart="86.00">
        <route edges="E16 E18 E19 E21 E28 E31 E32 E34"/>
    </vehicle>
    <vehicle id="220" depart="88.00">
        <route edges="E19 E21 E28 E31 E32 E36 E39 E41"/>
    </vehicle>
    <vehicle id="227" depart="90.80">
        <route edges="E27 E20 E17 E15 E11 E9 E2"/>
    </vehicle>
    <vehicle id="230" depart="92.00">
        <route edges="E4 E10 E12 E16 E18 E19 E21 E28 E31 E32 E36 E39"/>
    </vehicle>
    <vehicle id="232" depart="92.80">
        <route edges="E54 E52 E50 E49 E47 E45 E43"/>
    </vehicle>
    <vehicle id="239" depart="95.60">
        <route edges="E46 E48 gneE22 E53 E57"/>
    </vehicle>
    <vehicle id="241" depart="96.40">
        <route edges="E9 E6"/>
    </vehicle>
    <vehicle id="242" depart="96.80">
        <route edges="E32 E36 E39 E48 gneE22 E53"/>
    </vehicle>
    <vehicle id="243" depart="97.20">
        <route edges="E40 E42 E38 E37 E35 E30 E29 E27"/>
    </vehicle>
    <vehicle id="245" depart="98.00">
        <route edges="E38 E37 E35 E30 E29 E27"/>
    </vehicle>
    <vehicle id="246" depart="98.40">
        <route edges="E26 E25 E20 E17 E15 E11"/>
    </vehicle>
    <vehicle id="248" depart="99.20">
        <route edges="E1 E4 E10 E12 E16 E18 E19 E21 E28 E31"/>
    </vehicle>
    <vehicle id="251" depart="100.40">
        <route edges="E36"/>
    </vehicle>
    <vehicle id="252" depart="100.80">
        <route edges="E36 E39 E48 gneE22 E53 E57 E58"/>
    </vehicle>
    <vehicle id="255" depart="102.00">
        <route edges="E27 E20 E17 E15 E11"/>
    </vehicle>
    <vehicle id="256" depart="102.40">
        <route edges="E29 E27 E20 E17 E15 E11"/>
    </vehicle>
    <vehicle id="260" depart="104.00">
        <route edges="E1 E4"/>
    </vehicle>
    <vehicle id="261" depart="104.40">
        <route edges="E15 E11"/>
    </vehicle>
    <vehicle id="262" depart="104.80">
        <route edges="E37 E35 E30 E29 E27 E20 E17 E15 E11 E9 E2"/>
    </vehicle>
    <vehicle id="265" depart="106.00">
        <route edges="E13 E16 E18 E19 E21 E28"/>
    </vehicle>
    <vehicle id="271" depart="108.40">
        <route edges="E28 E31 E32 E36 E39 E41"/>
    </vehicle>
    <vehicle id="272" depart="108.80">
        <route edges="E17 E15 E11 E9 E6"/>
    </vehicle>
    <vehicle id="276" depart="110.40">
        <route edges="E18 E19 E21 E24"/>
    </vehicle>
    <vehicle id="282" depart="112.80">
        <route edges="E29 E27 E24"/>
    </vehicle>
    <vehicle id="283" depart="113.20">
        <route edges="E33 E30 E29 E27 E24"/>
    </vehicle>
    <vehicle id="285" depart="114.00">
        <route edges="E17 E15 E11"/>
    </vehicle>
    <vehicle id="288" depart="115.20">
        <route edges="E12 E16 E18 E19 E21 E28 E31 E32 E34"/>
    </vehicle>
    <vehicle id="290" depart="116.00">
        <route edges="E12 E16 E18 E19 E21 E28 E31 E32 E36 E39 E48 gneE22 E53 E57"/>
    </vehicle>
    <vehicle id="292" depart="116.80">
        <route edges="E18 E19 E21 E28 E31 E32 E36 E39 E48 gneE22 E53 E55"/>
    </vehicle>
    <vehicle id="295" depart="118.00">
        <route edges="E8 E10 E12 E16 E18 E19 E21 E28 E31 E32 E36 E39"/>
    </vehicle>
    <vehicle id="298" depart="119.20">
        <route edges="E38 E37 E35 E30 E29 E27 E20 E17 E15 E11 E9 E2"/>
    </vehicle>
    <vehicle id="302" depart="120.80">
        <route edges="E48 gneE22 E53"/>
    </vehicle>
    <vehicle id="304" depart="121.60">
        <route edges="E54 E52"/>
    </vehicle>
    <vehicle id="307" depart="122.80">
        <route edges="E42 E38 E37 E35 E30 E29 E27 E24"/>
    </vehicle>
    <vehicle id="308" depart="123.20">
        <route edges="E26 E25 E20 E17"/>
    </vehicle>
    <vehicle id="309" depart="123.60">
        <route edges="E26 E25"/>
    </vehicle>
    <vehicle id="311" depart="124.40">
        <route edges="E21 E28 E31 E32 E36 E39 E48 gneE22 E53 E55"/>
    </vehicle>
    <vehicle id="312" depart="124.80">
        <route edges="E10 E12 E16 E18 E19 E21 E28 E31 E32 E36 E39 E45 E43"/>
    </vehicle>
    <vehicle id="313" depart="125.20">
        <route edges="E32 E36 E39 E45 E43"/>
    </vehicle>
    <vehicle id="314" depart="125.60">
        <route edges="E16 E18 E19 E21 E28 E31"/>
    </vehicle>
    <vehicle id="318" depart="127.20">
        <route edges="E5 E10"/>
    </vehicle>
    <vehicle id="319" depart="127.60">
        <route edges="E22 E20 E17"/>
    </vehicle>
    <vehicle id="320" depart="128.00">
        <route edges="E29 E27 E24"/>
    </vehicle>
    <vehicle id="321" depart="128.40">
        <route edges="E25 E28 E31 E32 E36 E39 E48 gneE22 E53 E55"/>
    </vehicle>
    <vehicle id="326" depart="130.40">
        <route edges="E12 E16 E18 E19 E21 E28 E31 E32 E36 E39 E45 E43"/>
    </vehicle>
    <vehicle id="329" depart="131.60">
        <route edges="E8 E10 E12 E16 E18"/>
    </vehicle>
    <vehicle id="335" depart="134.00">
        <route edges="E35 E30 E29 E27 E24"/>
    </vehicle>
    <vehicle id="336" depart="134.40">
        <route edges="E25 E20"/>
    </vehicle>
    <vehicle id="339" depart="135.60">
        <route edges="E22 E28 E31 E32 E36 E39 E41"/>
    </vehicle>
    <vehicle id="342" depart="136.80">
        <route edges="E56 E52 E50 E49"/>
    </vehicle>
    <vehicle id="343" depart="137.20">
        <route edges="E42 E38 E37 E35 E30 E29 E27 E24"/>
    </vehicle>
    <vehicle id="345" depart="138.00">
        <route edges="E35 E30 E29 E27 E20 E17 E15 E11"/>
    </vehicle>
    <vehicle id="346" depart="138.40">
        <route edges="E1 E4 E10 E12 E14"/>
    </vehicle>
    <vehicle id="348" depart="139.20">
        <route edges="E46 E38 E37 E35 E30 E29 E27 E20 E17 E15"/>
    </vehicle>
    <vehicle id="349" depart="139.60">
        <route edges="E50 E49 E47 E38 E37 E35 E30 E29 E27 E20"/>
    </vehicle>
    <vehicle id="350" depart="140.00">
        <route edges="E1 E4 E10 E12 E14"/>
    </vehicle>
    <vehicle id="353" depart="141.20">
        <route edges="E12 E16 E18 E19 E21 E28 E31 E32"/>
    </vehicle>
    <vehicle id="359" depart="143.60">
        <route edges="E49 E47 E38 E37 E35 E30 E29 E27 E20 E17 E15 E11 E9"/>
    </vehicle>
    <vehicle id="360" depart="144.00">
        <route edges="E8 E10 E12 E16 E18 E19 E21 E28 E31 E32 E36 E39 E45 E43"/>
    </vehicle>
    <vehicle id="363" depart="145.20">
        <route edges="E50 E49 E47 E38 E37 E35 E30 E29 E27 E20 E17 E15 E11 E9 E7"/>
    </vehicle>
    <vehicle id="365" depart="146.00">
        <route edges="E56 E52 E50 E49 E47 E45"/>
    </vehicle>
    <vehicle id="368" depart="147.20">
        <route edges="E47 E38 E37 E35 E34"/>
    </vehicle>
    <vehicle id="372" depart="148.80">
        <route edges="E10 E12 E14"/>
    </vehicle>
    <vehicle id="373" depart="149.20">
        <route edges="E37 E35 E30 E29 E27 E24"/>
    </vehicle>
    <vehicle id="375" depart="150.00">
        <route edges="E26 E25 E20 E17 E15"/>
    </vehicle>
    <vehicle id="379" depart="151.60">
        <route edges="E33 E30 E29 E27 E20 E17"/>
    </vehicle>
    <vehicle id="382" depart="152.80">
        <route edges="E40 E42 E38 E37 E35 E30 E29 E27 E24"/>
    </vehicle>
    <vehicle id="383" depart="153.20">
        <route edges="E35 E30 E29 E27 E20 E17 E15 E11 E9"/>
    </vehicle>
    <vehicle id="387" depart="154.80">
        <route edges="E15 E11 E9 E6"/>
    </vehicle>
    <vehicle id="390" depart="156.00">
        <route edges="E38 E37"/>
    </vehicle>
    <vehicle id="398" depart="159.20">
        <route edges="E11 E9 E7"/>
    </vehicle>
    <vehicle id="402" depart="160.80">
        <route edges="E22 E28 E31 E32 E34"/>
    </vehicle>
    <vehicle id="404" depart="161.60">
        <route edges="E20"/>
    </vehicle>
    <vehicle id="407" depart="162.80">
        <route edges="E47 E38 E37 E35 E30 E29"/>
    </vehicle>
    <vehicle id="411" depart="164.40">
        <route edges="E30 E29 E27 E20 E17 E15"/>
    </vehicle>
    <vehicle id="412" depart="164.80">
        <route edges="E54 E52 E50 E49 E47 E38 E37 E35 E30"/>
    </vehicle>
    <vehicle id="413" depart="165.20">
        <route edges="E26 E25 E28 E31 E32 E36"/>
    </vehicle>
    <vehicle id="416" depart="166.40">
        <route edges="E52 E50 E49"/>
    </vehicle>
    <vehicle id="417" depart="166.80">
        <route edges="E52 E50 E49 E47 E38 E37 E35"/>
    </vehicle>
    <vehicle id="420" depart="168.00">
        <route edges="E38 E37 E35 E30 E29 E27 E20"/>
    </vehicle>
    <vehicle id="422" depart="168.80">
        <route edges="E4 E10 E12 E16 E18 E19 E21 E28 E31 E32 E36 E39 E48 gneE22 E53 E57 E58"/>
    </vehicle>
    <vehicle id="425" depart="170.00">
        <route edges="E42 E48 gneE22 E53 E55"/>
    </vehicle>
    <vehicle id="426" depart="170.40">
        <route edges="E38 E37 E35 E30 E29"/>
    </vehicle>
    <vehicle id="429" depart="171.60">
        <route edges="E42 E38 E37 E35 E30 E29 E27"/>
    </vehicle>
    <vehicle id="432" depart="172.80">
        <route edges="E40 E42 E45"/>
    </vehicle>
    <vehicle id="438" depart="175.20">
        <route edges="E36 E39 E41"/>
    </vehicle>
    <vehicle id="439" depart="175.60">
        <route edges="E29 E27 E23"/>
    </vehicle>
    <vehicle id="440" depart="176.00">
        <route edges="E37 E35 E30 E29 E27 E24"/>
    </vehicle>
    <vehicle id="442" depart="176.80">
        <route edges="E47 E38 E37 E35 E30 E29 E27 E20 E17 E15 E11"/>
    </vehicle>
    <vehicle id="443" depart="177.20">
        <route edges="E31 E32 E36 E39 E48 gneE22 E53 E57"/>
    </vehicle>
    <vehicle id="445" depart="178.00">
        <route edges="E5 E10 E12 E16 E18 E19 E21 E28 E31 E32"/>
    </vehicle>
    <vehicle id="451" depart="180.40">
        <route edges="E40 E42 E48 gneE22 E53"/>
    </vehicle>
    <vehicle id="455" depart="182.00">
        <route edges="E53"/>
    </vehicle>
    <vehicle id="458" depart="183.20">
        <route edges="E33 E36"/>
    </vehicle>
    <vehicle id="461" depart="184.40">
        <route edges="E12 E16"/>
    </vehicle>
    <vehicle id="468" depart="187.20">
        <route edges="E49 E47"/>
    </vehicle>
    <vehicle id="469" depart="187.60">
        <route edges="E45"/>
    </vehicle>
    <vehicle id="470" depart="188.00">
        <route edges="E54 E52 E50 E49 E47"/>
    </vehicle>
    <vehicle id="471" depart="188.40">
        <route edges="E38 E37 E35 E30"/>
    </vehicle>
    <vehicle id="475" depart="190.00">
        <route edges="E25 E28 E31 E32 E36 E39 E48 gneE22 E53 E57"/>
    </vehicle>
    <vehicle id="479" depart="191.60">
        <route edges="E5 E10 E12 E16 E18 E19 E21 E28 E31 E32 E34"/>
    </vehicle>
    <vehicle id="480" depart="192.00">
        <route edges="E49 E47 E38 E37 E35 E30 E29 E27 E24"/>
    </vehicle>
    <vehicle id="485" depart="194.00">
        <route edges="E50 E49 E47 E38 E37 E35 E30 E29 E27 E20 E17 E15 E11 E9 E6"/>
    </vehicle>
    <vehicle id="488" depart="195.20">
        <route edges="E40 E42 E38 E37 E35 E30 E29"/>
    </vehicle>
    <vehicle id="491" depart="196.40">
        <route edges="E56 E52 E50 E49 E47 E38 E37 E35 E30 E29 E27 E20 E17"/>
    </vehicle>
    <vehicle id="494" depart="197.60">
        <route edges="E42 E38 E37 E35 E30 E29"/>
    </vehicle>
    <vehicle id="495" depart="198.00">
        <route edges="E38"/>
    </vehicle>
    <vehicle id="496" depart="198.40">
        <route edges="E17 E15 E11 E9"/>
    </vehicle>
    <vehicle id="500" depart="200.00">
        <route edges="E26 E25 E20 E17 E15 E11 E9 E2"/>
    </vehicle>
    <vehicle id="502" depart="200.80">
        <route edges="E4"/>
    </vehicle>
    <vehicle id="503" depart="201.20">
        <route edges="E1 E4 E10 E12 E16 E18 E19 E21 E28 E31"/>
    </vehicle>
    <vehicle id="506" depart="202.40">
        <route edges="E27"/>
    </vehicle>
    <vehicle id="511" depart="204.40">
        <route edges="E12"/>
    </vehicle>
    <vehicle id="521" depart="208.40">
        <route edges="E54 E52 E50 E49 E47 E38 E37 E35 E30 E29 E27 E20 E17"/>
    </vehicle>
    <vehicle id="524" depart="209.60">
        <route edges="E52 E50 E49 E47 E38 E37 E35 E30 E29 E27 E20 E17 E15 E11 E9 E2"/>
    </vehicle>
    <vehicle id="526" depart="210.40">
        <route edges="E40 E42 E48 gneE22"/>
    </vehicle>
    <vehicle id="528" depart="211.20">
        <route edges="E33 E30 E29 E27 E20 E17 E15 E14"/>
    </vehicle>
    <vehicle id="529" depart="211.60">
        <route edges="E27 E20"/>
    </vehicle>
    <vehicle id="534" depart="213.60">
        <route edges="E46"/>
    </vehicle>
    <vehicle id="536" depart="214.40">
        <route edges="E40 E42 E38 E37 E35"/>
    </vehicle>
    <vehicle id="537" depart="214.80">
        <route edges="E40 E42 E38 E37 E35 E30 E29 E27 E20 E17 E15 E11 E9 E6"/>
    </vehicle>
    <vehicle id="538" depart="215.20">
        <route edges="E35 E30 E29 E27 E20 E17 E15"/>
    </vehicle>
    <vehicle id="539" depart="215.60">
        <route edges="E5 E10 E12 E16 E18 E19 E21 E28"/>
    </vehicle>
    <vehicle id="540" depart="216.00">
        <route edges="E25 E28 E31"/>
    </vehicle>
    <vehicle id="543" depart="217.20">
        <route edges="E18 E19 E21 E24"/>
    </vehicle>
    <vehicle id="544" depart="217.60">
        <route edges="E21 E28 E31 E32 E34"/>
    </vehicle>
    <vehicle id="545" depart="218.00">
        <route edges="E16 E18 E19 E21 E28 E31 E32 E36 E39 E48 gneE22 E53"/>
    </vehicle>
    <vehicle id="546" depart="218.40">
        <route edges="E1 E4 E10 E12 E16 E18 E19 E21 E28 E31 E32 E36 E39 E45 E43"/>
    </vehicle>
    <vehicle id="549" depart="219.60">
        <route edges="E46 E48"/>
    </vehicle>
    <vehicle id="551" depart="220.40">
        <route edges="E30 E29"/>
    </vehicle>
    <vehicle id="558" depart="223.20">
        <route edges="E56 E52 E50 E49 E47 E38 E37 E35 E34"/>
    </vehicle>
    <vehicle id="573" depart="229.20">
        <route edges="E12 E16 E18 E19 E21 E24"/>
    </vehicle>
    <vehicle id="574" depart="229.60">
        <route edges="E4 E10 E12 E16 E18"/>
    </vehicle>
    <vehicle id="584" depart="233.60">
        <route edges="E5 E10 E12 E16"/>
    </vehicle>
    <vehicle id="585" depart="234.00">
        <route edges="E56 E52 E50 E49 E47 E38 E37 E35 E30 E29 E27 E20 E17 E15 E11 E9 E2 E0"/>
    </vehicle>
    <vehicle id="586" depart="234.40">
        <route edges="E27 E20 E17 E15 E14"/>
    </vehicle>
    <vehicle id="587" depart="234.80">
        <route edges="E54 E52 E50 E49"/>
    </vehicle>
    <vehicle id="588" depart="235.20">
        <route edges="E4"/>
    </vehicle>
    <vehicle id="590" depart="236.00">
        <route edges="E35 E30 E29"/>
    </vehicle>
    <vehicle id="591" depart="236.40">
        <route edges="E37 E35 E30 E29 E27 E20"/>
    </vehicle>
    <vehicle id="594" depart="237.60">
        <route edges="E52 E50 E49 E47 E41"/>
    </vehicle>
    <vehicle id="595" depart="238.00">
        <route edges="E56 E52 E50 E49 E47 E38"/>
    </vehicle>
    <vehicle id="597" depart="238.80">
        <route edges="E12 E16 E18 E19"/>
    </vehicle>
    <vehicle id="599" depart="239.60">
        <route edges="E10 E12 E16 E18 E19 E21 E28 E31 E32 E36 E39"/>
    </vehicle>
    <vehicle id="604" depart="241.60">
        <route edges="E8 E10 E12 E16 E18"/>
    </vehicle>
    <vehicle id="608" depart="243.20">
        <route edges="E56 E52 E50 E49 E47 E38 E37 E35 E30 E29"/>
    </vehicle>
    <vehicle id="609" depart="243.60">
        <route edges="E27 E20 E17 E15 E11 E9 E7"/>
    </vehicle>
    <vehicle id="613" depart="245.20">
        <route edges="E53 E57"/>
    </vehicle>
    <vehicle id="620" depart="248.00">
        <route edges="E32 E36"/>
    </vehicle>
    <vehicle id="623" depart="249.20">
        <route edges="E21 E23"/>
    </vehicle>
    <vehicle id="631" depart="252.40">
        <route edges="E19 E21 E28 E31 E32 E36 E39 E48"/>
    </vehicle>
    <vehicle id="635" depart="254.00">
        <route edges="E29 E27 E20 E17 E15"/>
    </vehicle>
    <vehicle id="638" depart="255.20">
        <route edges="E18 E19 E21 E28 E31 E32 E36 E39 E41"/>
    </vehicle>
    <vehicle id="639" depart="255.60">
        <route edges="E40 E42 E38 E37 E35 E30 E29 E27 E24"/>
    </vehicle>
    <vehicle id="642" depart="256.80">
        <route edges="E49 E47"/>
    </vehicle>
    <vehicle id="643" depart="257.20">
        <route edges="E26 E25 E28 E31 E32 E36 E39 E45"/>
    </vehicle>
    <vehicle id="646" depart="258.40">
        <route edges="E38 E37 E35 E30 E29 E27 E20 E17 E15"/>
    </vehicle>
    <vehicle id="648" depart="259.20">
        <route edges="E31 E32 E36 E39 E45 E43"/>
    </vehicle>
    <vehicle id="649" depart="259.60">
        <route edges="E26 E25 E20 E17 E15 E11 E9 E7"/>
    </vehicle>
    <vehicle id="650" depart="260.00">
        <route edges="E44 E46 E38 E37 E35 E30 E29 E27 E20 E17 E15"/>
    </vehicle>
    <vehicle id="652" depart="260.80">
        <route edges="E39"/>
    </vehicle>
    <vehicle id="656" depart="262.40">
        <route edges="E28 E31 E32 E36 E39 E41"/>
    </vehicle>
    <vehicle id="658" depart="263.20">
        <route edges="E40 E42 E38 E37 E35 E30 E29 E27 E20 E17 E15 E11 E9 E2 E0"/>
    </vehicle>
    <vehicle id="660" depart="264.00">
        <route edges="E54 E52 E50 E49 E47 E38"/>
    </vehicle>
    <vehicle id="661" depart="264.40">
        <route edges="E42 E38 E37 E35 E30 E29 E27"/>
    </vehicle>
    <vehicle id="663" depart="265.20">
        <route edges="E12 E16 E18 E19 E21 E28 E31 E32 E34"/>
    </vehicle>
    <vehicle id="664" depart="265.60">
        <route edges="E22 E28 E31 E32 E36 E39 E48 gneE22 E53 E57 E58"/>
    </vehicle>
    <vehicle id="669" depart="267.60">
        <route edges="E5 E10 E12 E16 E18 E19 E21 E28 E31 E32 E34"/>
    </vehicle>
    <vehicle id="673" depart="269.20">
        <route edges="E42 E38 E37 E35 E30 E29 E27 E20 E17 E15 E11 E9 E6"/>
    </vehicle>
    <vehicle id="674" depart="269.60">
        <route edges="E25 E20 E17 E15 E11 E9 E2"/>
    </vehicle>
    <vehicle id="677" depart="270.80">
        <route edges="E42 E38 E37 E35 E30 E29 E27 E20 E17 E15 E11 E9 E2 E0"/>
    </vehicle>
    <vehicle id="681" depart="272.40">
        <route edges="E52 E50 E49 E47 E38 E37 E35 E30 E29 E27 E24"/>
    </vehicle>
    <vehicle id="682" depart="272.80">
        <route edges="E26 E25 E23"/>
    </vehicle>
    <vehicle id="683" depart="273.20">
        <route edges="E54 E52 E50 E49 E47 E38"/>
    </vehicle>
    <vehicle id="685" depart="274.00">
        <route edges="E35 E34"/>
    </vehicle>
    <vehicle id="687" depart="274.80">
        <route edges="E12 E16 E18 E19 E21 E28 E31 E32"/>
    </vehicle>
    <vehicle id="690" depart="276.00">
        <route edges="E56 E52 E50 E49 E47 E38"/>
    </vehicle>
    <vehicle id="691" depart="276.40">
        <route edges="E56 E52 E50 E49 E47 E38 E37 E35 E30 E29 E27 E20 E17"/>
    </vehicle>
    <vehicle id="692" depart="276.80">
        <route edges="E10 E12 E16 E18 E19 E21 E28 E31 E32 E34"/>
    </vehicle>
    <vehicle id="694" depart="277.60">
        <route edges="E42 E38 E37 E35 E30 E29 E27 E20 E17 E15 E11 E9 E7"/>
    </vehicle>
    <vehicle id="697" depart="278.80">
        <route edges="E5 E10 E12 E16 E18 E19 E21 E28 E31 E32 E36 E39 E48 gneE22 E53 E57"/>
    </vehicle>
    <vehicle id="698" depart="279.20">
        <route edges="E54 E52 E50 E49 E47 E38"/>
    </vehicle>
    <vehicle id="699" depart="279.60">
        <route edges="E4 E10 E12 E16 E18 E19 E21 E28 E31 E32 E36 E39 E48"/>
    </vehicle>
    <vehicle id="703" depart="281.20">
        <route edges="E52 E50 E49 E47 E38 E37 E35 E30 E29 E27"/>
    </vehicle>
    <vehicle id="705" depart="282.00">
        <route edges="E9 E6"/>
    </vehicle>
    <vehicle id="713" depart="285.20">
        <route edges="E31 E32 E36 E39 E48 gneE22 E53"/>
    </vehicle>
    <vehicle id="714" depart="285.60">
        <route edges="E39 E48 gneE22 E53 E57"/>
    </vehicle>
    <vehicle id="715" depart="286.00">
        <route edges="E11"/>
    </vehicle>
    <vehicle id="716" depart="286.40">
        <route edges="E44 E46 E38 E37 E35 E30 E29 E27 E20 E17 E15 E11 E9 E7"/>
    </vehicle>
    <vehicle id="718" depart="287.20">
        <route edges="E1 E4 E6"/>
    </vehicle>
    <vehicle id="720" depart="288.00">
        <route edges="E29 E27 E20 E17 E15 E11 E9 E2"/>
    </vehicle>
    <vehicle id="721" depart="288.40">
        <route edges="E13 E16 E18 E19 E21 E28 E31 E32 E36 E39 E48"/>
    </vehicle>
    <vehicle id="725" depart="290.00">
        <route edges="E21 E23"/>
    </vehicle>
    <vehicle id="728" depart="291.20">
        <route edges="E13 E16 E18 E19 E21 E28 E31 E32 E36 E39"/>
    </vehicle>
    <vehicle id="730" depart="292.00">
        <route edges="E25 E20 E17 E15 E11 E9 E7"/>
    </vehicle>
    <vehicle id="735" depart="294.00">
        <route edges="E37 E35"/>
    </vehicle>
    <vehicle id="741" depart="296.40">
        <route edges="E19 E21 E28 E31 E32 E36 E39 E45 E43"/>
    </vehicle>
    <vehicle id="742" depart="296.80">
        <route edges="E15 E11 E9 E7"/>
    </vehicle>
    <vehicle id="746" depart="298.40">