<?xml version="1.0" encoding="UTF-8"?>

<!-- generated on 2021-09-29 19:48:15 by Eclipse SUMO duarouter Version 1.9.2
<configuration xmlns:xsi="http://www.w3.org/2001/XMLSchema-instance" xsi:noNamespaceSchemaLocation="http://sumo.dlr.de/xsd/duarouterConfiguration.xsd">

    <input>
        <net-file value="/home/sonic/Desktop/nets/case06/intersection.net.xml"/>
        <route-files value="trips.trips.xml"/>
    </input>

    <output>
        <output-file value="intersection_random11.rou.xml"/>
        <alternatives-output value="intersection_random11.rou.alt.xml"/>
    </output>

    <time>
        <begin value="0"/>
        <end value="18000.0"/>
    </time>

    <report>
        <no-warnings value="true"/>
        <ignore-errors value="true"/>
        <no-step-log value="true"/>
    </report>

</configuration>
-->

<routes xmlns:xsi="http://www.w3.org/2001/XMLSchema-instance" xsi:noNamespaceSchemaLocation="http://sumo.dlr.de/xsd/routes_file.xsd">
    <vehicle id="9" depart="3.60">
        <route edges="E21 E23"/>
    </vehicle>
    <vehicle id="13" depart="5.20">
        <route edges="E4 E10 E12 E16 E18 E19 E21 E28 E31"/>
    </vehicle>
    <vehicle id="14" depart="5.60">
        <route edges="E40 E42 E38 E37 E35 E30 E29 E27 E20 E17 E15 E11 E9 E2"/>
    </vehicle>
    <vehicle id="15" depart="6.00">
        <route edges="E44 E46 E48 gneE22 E53"/>
    </vehicle>
    <vehicle id="16" depart="6.40">
        <route edges="E46 E38 E37 E35 E30 E29 E27 E20 E17 E15 E11 E9"/>
    </vehicle>
    <vehicle id="17" depart="6.80">
        <route edges="E8 E10 E12 E16 E18"/>
    </vehicle>
    <vehicle id="18" depart="7.20">
        <route edges="E19 E21 E28"/>
    </vehicle>
    <vehicle id="21" depart="8.40">
        <route edges="E2 E0"/>
    </vehicle>
    <vehicle id="22" depart="8.80">
        <route edges="E53 E57 E58"/>
    </vehicle>
    <vehicle id="24" depart="9.60">
        <route edges="E49 E47 E45"/>
    </vehicle>
    <vehicle id="26" depart="10.40">
        <route edges="E25 E28 E31 E32 E36 E39 E48 gneE22 E53"/>
    </vehicle>
    <vehicle id="29" depart="11.60">
        <route edges="E10 E12 E16 E18 E19 E21 E28 E31 E32 E36"/>
    </vehicle>
    <vehicle id="32" depart="12.80">
        <route edges="E48 gneE22 E53 E57 E58"/>
    </vehicle>
    <vehicle id="33" depart="13.20">
        <route edges="E37 E35 E30 E29 E27 E20 E17 E15 E11 E9 E7"/>
    </vehicle>
    <vehicle id="40" depart="16.00">
        <route edges="E52 E50 E49 E47 E38 E37 E35 E30 E29 E27 E20 E17 E15 E11 E9 E7"/>
    </vehicle>
    <vehicle id="44" depart="17.60">
        <route edges="E20 E17 E15 E11 E9 E2 E0"/>
    </vehicle>
    <vehicle id="47" depart="18.80">
        <route edges="E16 E18"/>
    </vehicle>
    <vehicle id="50" depart="20.00">
        <route edges="E31 E32 E36 E39 E45 E43"/>
    </vehicle>
    <vehicle id="52" depart="20.80">
        <route edges="E12 E16 E18 E19 E21 E28 E31 E32 E36 E39 E48 gneE22"/>
    </vehicle>
    <vehicle id="53" depart="21.20">
        <route edges="E8 E2 E0"/>
    </vehicle>
    <vehicle id="54" depart="21.60">
        <route edges="E54 E57"/>
    </vehicle>
    <vehicle id="55" depart="22.00">
        <route edges="E46 E38 E37 E35 E30 E29 E27 E20 E17 E15 E14"/>
    </vehicle>
    <vehicle id="57" depart="22.80">
        <route edges="E38 E37 E35 E30 E29 E27 E20 E17 E15 E11 E9 E2 E0"/>
    </vehicle>
    <vehicle id="61" depart="24.40">
        <route edges="E18 E19 E21 E28 E31 E32 E36 E39 E45 E43"/>
    </vehicle>
    <vehicle id="62" depart="24.80">
        <route edges="E31 E32 E34"/>
    </vehicle>
    <vehicle id="69" depart="27.60">
        <route edges="E35 E30 E29 E27 E20 E17 E15 E14"/>
    </vehicle>
    <vehicle id="75" depart="30.00">
        <route edges="E19 E21"/>
    </vehicle>
    <vehicle id="76" depart="30.40">
        <route edges="E50 E49 E47 E38 E37 E35 E30"/>
    </vehicle>
    <vehicle id="77" depart="30.80">
        <route edges="E10 E12 E16 E18 E19 E21 E28 E31 E32 E36"/>
    </vehicle>
    <vehicle id="78" depart="31.20">
        <route edges="E56 E52 E50 E49 E47 E38 E37 E35 E30 E29 E27 E20 E17 E15 E11 E9"/>
    </vehicle>
    <vehicle id="80" depart="32.00">
        <route edges="E11 E9"/>
    </vehicle>
    <vehicle id="87" depart="34.80">
        <route edges="E13 E16 E18 E19 E21 E28 E31 E32 E36 E39 E48 gneE22 E53 E57 E58"/>
    </vehicle>
    <vehicle id="89" depart="35.60">
        <route edges="E15 E14"/>
    </vehicle>
    <vehicle id="92" depart="36.80">
        <route edges="E18 E19 E21 E23"/>
    </vehicle>
    <vehicle id="103" depart="41.20">
        <route edges="E56 E52 E50 E49 E47 E38 E37 E35 E30"/>
    </vehicle>
    <vehicle id="106" depart="42.40">
        <route edges="E5 E10 E12 E16 E18 E19 E21 E28 E31 E32 E36 E39 E48"/>
    </vehicle>
    <vehicle id="107" depart="42.80">
        <route edges="E56 E52 E50 E49 E47 E38 E37 E35 E30 E29 E27 E23"/>
    </vehicle>
    <vehicle id="108" depart="43.20">
        <route edges="E13 E16 E18 E19 E21 E28 E31 E32 E36"/>
    </vehicle>
    <vehicle id="109" depart="43.60">
        <route edges="E29 E27 E20 E17"/>
    </vehicle>
    <vehicle id="112" depart="44.80">
        <route edges="E11 E9 E2 E0"/>
    </vehicle>
    <vehicle id="116" depart="46.40">
        <route edges="E33 E36 E39 E48 gneE22 E53"/>
    </vehicle>
    <vehicle id="117" depart="46.80">
        <route edges="E22 E20 E17 E15"/>
    </vehicle>
    <vehicle id="119" depart="47.60">
        <route edges="E49 E47 E38 E37 E35 E30 E29 E27 E20"/>
    </vehicle>
    <vehicle id="124" depart="49.60">
        <route edges="E38 E37 E35 E30"/>
    </vehicle>
    <vehicle id="129" depart="51.60">
        <route edges="E49 E47 E38 E37"/>
    </vehicle>
    <vehicle id="131" depart="52.40">
        <route edges="E52 E50 E49 E47 E38 E37 E35 E30 E29 E27 E20 E17 E15 E14"/>
    </vehicle>
    <vehicle id="134" depart="53.60">
        <route edges="E4 E10 E12 E16 E18 E19 E21 E28 E31 E32 E36"/>
    </vehicle>
    <vehicle id="136" depart="54.40">
        <route edges="E26 E25"/>
    </vehicle>
    <vehicle id="141" depart="56.40">
        <route edges="E19 E21"/>
    </vehicle>
    <vehicle id="143" depart="57.20">
        <route edges="E30 E29 E27 E24"/>
    </vehicle>
    <vehicle id="144" depart="57.60">
        <route edges="E16 E18 E19 E21"/>
    </vehicle>
    <vehicle id="147" depart="58.80">
        <route edges="E37 E35 E30 E29 E27 E20 E17 E15"/>
    </vehicle>
    <vehicle id="149" depart="59.60">
        <route edges="E11 E9 E2 E0"/>
    </vehicle>
    <vehicle id="150" depart="60.00">
        <route edges="E1 E4 E10 E12 E16 E18 E19 E21 E28 E31 E32 E36 E39 E48 gneE22 E53 E57 E58"/>
    </vehicle>
    <vehicle id="151" depart="60.40">
        <route edges="E30 E29 E27 E20 E17 E15 E14"/>
    </vehicle>
    <vehicle id="152" depart="60.80">
        <route edges="E28 E31 E32 E36 E39 E48 gneE22 E53"/>
    </vehicle>
    <vehicle id="153" depart="61.20">
        <route edges="E46 E41"/>
    </vehicle>
    <vehicle id="155" depart="62.00">
        <route edges="E36 E39 E48 gneE22 E53 E55"/>
    </vehicle>
    <vehicle id="161" depart="64.40">
        <route edges="E5 E10 E12 E16"/>
    </vehicle>
    <vehicle id="162" depart="64.80">
        <route edges="E52 E50 E49 E47 E38 E37 E35 E30 E29 E27 E20 E17 E15 E11 E9 E7"/>
    </vehicle>
    <vehicle id="164" depart="65.60">
        <route edges="E4 E10 E12 E16 E18 E19 E21 E28 E31 E32 E36 E39"/>
    </vehicle>
    <vehicle id="166" depart="66.40">
        <route edges="E39"/>
    </vehicle>
    <vehicle id="173" depart="69.20">
        <route edges="E46 E38 E37 E35 E30 E29 E27 E20 E17 E15 E11 E9 E7"/>
    </vehicle>
    <vehicle id="174" depart="69.60">
        <route edges="E42 E38 E37"/>
    </vehicle>
    <vehicle id="175" depart="70.00">
        <route edges="E37 E35 E30 E29 E27 E20 E17 E15 E11 E9 E2 E0"/>
    </vehicle>
    <vehicle id="179" depart="71.60">
        <route edges="E38 E37 E35"/>
    </vehicle>
    <vehicle id="181" depart="72.40">
        <route edges="E56 E52 E50 E49 E47 E38 E37 E35 E30 E29 E27 E20 E17"/>
    </vehicle>
    <vehicle id="183" depart="73.20">
        <route edges="E12 E16 E18 E19 E21 E28 E31 E32 E36 E39 E48 gneE22 E53 E57"/>
    </vehicle>
    <vehicle id="184" depart="73.60">
        <route edges="E39 E45 E43"/>
    </vehicle>
    <vehicle id="186" depart="74.40">
        <route edges="E42 E38 E37 E35 E30 E29 E27 E20 E17 E15"/>
    </vehicle>
    <vehicle id="187" depart="74.80">
        <route edges="gneE22 E53 E57 E58"/>
    </vehicle>
    <vehicle id="190" depart="76.00">
        <route edges="E20 E17 E15 E11 E9"/>
    </vehicle>
    <vehicle id="191" depart="76.40">
        <route edges="E19 E21 E28 E31 E32 E34"/>
    </vehicle>
    <vehicle id="193" depart="77.20">
        <route edges="E5 E10 E12 E16 E18 E19 E21 E28 E31 E32 E36 E39 E48"/>
    </vehicle>
    <vehicle id="195" depart="78.00">
        <route edges="E46 E48 gneE22 E53"/>
    </vehicle>
    <vehicle id="198" depart="79.20">
        <route edges="E38 E37 E35 E30"/>
    </vehicle>
    <vehicle id="199" depart="79.60">
        <route edges="E38 E37 E35 E30 E29 E27 E20 E17 E15"/>
    </vehicle>
    <vehicle id="203" depart="81.20">
        <route edges="E48 gneE22"/>
    </vehicle>
    <vehicle id="205" depart="82.00">
        <route edges="E38 E37 E35 E30 E29 E27 E20 E17 E15 E11 E9 E6"/>
    </vehicle>
    <vehicle id="208" depart="83.20">
        <route edges="E47 E38 E37 E35 E30 E29 E27 E20 E17 E15"/>
    </vehicle>
    <vehicle id="212" depart="84.80">
        <route edges="E19 E21 E28"/>
    </vehicle>
    <vehicle id="214" depart="85.60">
        <route edges="E22 E20 E17 E15 E14"/>
    </vehicle>
    <vehicle id="218" depart="87.20">
        <route edges="E25 E28 E31 E32 E36"/>
    </vehicle>
    <vehicle id="223" depart="89.20">
        <route edges="E56 E52"/>
    </vehicle>
    <vehicle id="225" depart="90.00">
        <route edges="E1 E4 E10 E12 E16 E18 E19 E21 E28 E31 E32 E36 E39 E45"/>
    </vehicle>
    <vehicle id="226" depart="90.40">
        <route edges="E32 E36 E39 E45"/>
    </vehicle>
    <vehicle id="227" depart="90.80">
        <route edges="E49 E47 E45"/>
    </vehicle>
    <vehicle id="229" depart="91.60">
        <route edges="E5 E10 E12 E16 E18 E19 E21 E28 E31 E32 E34"/>
    </vehicle>
    <vehicle id="231" depart="92.40">
        <route edges="E40 E42 E38 E37 E35 E34"/>
    </vehicle>
    <vehicle id="234" depart="93.60">
        <route edges="E26 E25 E20 E17 E15 E11 E9"/>
    </vehicle>
    <vehicle id="238" depart="95.20">
        <route edges="E1 E4 E6"/>
    </vehicle>
    <vehicle id="241" depart="96.40">
        <route edges="E17 E15"/>
    </vehicle>
    <vehicle id="242" depart="96.80">
        <route edges="E19 E21 E28 E31 E32 E36 E39 E48 gneE22 E53 E55"/>
    </vehicle>
    <vehicle id="243" depart="97.20">
        <route edges="E21 E28"/>
    </vehicle>
    <vehicle id="244" depart="97.60">
        <route edges="E40 E42 E38"/>
    </vehicle>
    <vehicle id="246" depart="98.40">
        <route edges="E42 E38"/>
    </vehicle>
    <vehicle id="248" depart="99.20">
        <route edges="E21 E28 E31 E32 E36 E39 E48 gneE22 E53 E57 E58"/>
    </vehicle>
    <vehicle id="256" depart="102.40">
        <route edges="E12 E16 E18 E19 E21 E28 E31 E32 E36 E39 E48 gneE22 E53 E55"/>
    </vehicle>
    <vehicle id="258" depart="103.20">
        <route edges="E36 E39 E48 gneE22 E53"/>
    </vehicle>
    <vehicle id="259" depart="103.60">
        <route edges="E50 E49 E47 E41"/>
    </vehicle>
    <vehicle id="261" depart="104.40">
        <route edges="E44 E46 E38 E37 E35 E30 E29 E27 E20 E17 E15 E11"/>
    </vehicle>
    <vehicle id="264" depart="105.60">
        <route edges="E12 E16 E18 E19 E21 E28 E31 E32 E36 E39 E45"/>
    </vehicle>
    <vehicle id="265" depart="106.00">
        <route edges="E25 E28 E31 E32 E36 E39 E41"/>
    </vehicle>
    <vehicle id="267" depart="106.80">
        <route edges="E5 E2 E0"/>
    </vehicle>
    <vehicle id="270" depart="108.00">
        <route edges="E26 E25 E28 E31 E32 E36 E39 E45 E43"/>
    </vehicle>
    <vehicle id="271" depart="108.40">
        <route edges="E56 E52 E50 E49 E47 E38 E37 E35 E34"/>
    </vehicle>
    <vehicle id="272" depart="108.80">
        <route edges="E52 E50 E49 E47 E38 E37 E35 E30 E29 E27 E20 E17 E15"/>
    </vehicle>
    <vehicle id="274" depart="109.60">
        <route edges="E21 E28 E31 E32 E36"/>
    </vehicle>
    <vehicle id="275" depart="110.00">
        <route edges="E56 E52 E50 E49 E47 E38 E37 E35 E30 E29 E27 E20"/>
    </vehicle>
    <vehicle id="276" depart="110.40">
        <route edges="E10 E12 E16 E18"/>
    </vehicle>
    <vehicle id="280" depart="112.00">
        <route edges="E22 E28"/>
    </vehicle>
    <vehicle id="283" depart="113.20">
        <route edges="E17 E15 E11 E9 E2 E0"/>
    </vehicle>
    <vehicle id="285" depart="114.00">
        <route edges="E20"/>
    </vehicle>
    <vehicle id="286" depart="114.40">
        <route edges="E52 E50 E49 E47 E38 E37 E35 E30 E29 E27 E20 E17 E15 E11 E9 E6"/>
    </vehicle>
    <vehicle id="288" depart="115.20">
        <route edges="E21 E28 E31 E32 E34"/>
    </vehicle>
    <vehicle id="290" depart="116.00">
        <route edges="E46 E48 gneE22 E53 E57 E58"/>
    </vehicle>
    <vehicle id="301" depart="120.40">
        <route edges="E40 E42 E45"/>
    </vehicle>
    <vehicle id="304" depart="121.60">
        <route edges="gneE22"/>
    </vehicle>
    <vehicle id="308" depart="123.20">
        <route edges="E29 E27 E20 E17 E15 E14"/>
    </vehicle>
    <vehicle id="315" depart="126.00">
        <route edges="E26 E25 E28 E31 E32 E36 E39 E48 gneE22 E53"/>
    </vehicle>
    <vehicle id="316" depart="126.40">
        <route edges="E22 E28 E31 E32"/>
    </vehicle>
    <vehicle id="320" depart="128.00">
        <route edges="E49 E47 E38 E37 E35 E30 E29 E27 E23"/>
    </vehicle>
    <vehicle id="322" depart="128.80">
        <route edges="E39 E48 gneE22 E53 E57 E58"/>
    </vehicle>
    <vehicle id="323" depart="129.20">
        <route edges="E52 E50 E49 E47 E38 E37 E35 E30 E29 E27 E20 E17 E15 E11 E9 E6"/>
    </vehicle>
    <vehicle id="328" depart="131.20">
        <route edges="E54 E52"/>
    </vehicle>
    <vehicle id="329" depart="131.60">
        <route edges="E25 E20 E17 E15 E11 E9 E7"/>
    </vehicle>
    <vehicle id="332" depart="132.80">
        <route edges="E12 E16 E18 E19 E21 E28 E31"/>
    </vehicle>
    <vehicle id="340" depart="136.00">
        <route edges="E13 E16 E18 E19 E21 E28"/>
    </vehicle>
    <vehicle id="342" depart="136.80">
        <route edges="E37 E35"/>
    </vehicle>
    <vehicle id="343" depart="137.20">
        <route edges="E28 E31 E32 E36 E39 E48 gneE22"/>
    </vehicle>
    <vehicle id="345" depart="138.00">
        <route edges="E54 E52 E50 E49 E47 E38 E37 E35 E30 E29 E27 E20 E17 E15 E11 E9 E2 E0"/>
    </vehicle>
    <vehicle id="353" depart="141.20">
        <route edges="E27 E20 E17 E15 E11 E9 E6"/>
    </vehicle>
    <vehicle id="357" depart="142.80">
        <route edges="E22 E20 E17 E15 E11 E9 E2 E0"/>
    </vehicle>
    <vehicle id="361" depart="144.40">
        <route edges="E12 E16 E18 E19 E21 E28 E31 E32 E36 E39 E48 gneE22 E53"/>
    </vehicle>
    <vehicle id="368" depart="147.20">
        <route edges="E37 E35 E30 E29 E27 E24"/>
    </vehicle>
    <vehicle id="370" depart="148.00">
        <route edges="E13 E11 E9 E7"/>
    </vehicle>
    <vehicle id="373" depart="149.20">
        <route edges="E37 E35 E34"/>
    </vehicle>
    <vehicle id="374" depart="149.60">
        <route edges="E47 E38 E37 E35 E30"/>
    </vehicle>
    <vehicle id="375" depart="150.00">
        <route edges="E22 E24"/>
    </vehicle>
    <vehicle id="376" depart="150.40">
        <route edges="E11 E9 E2 E0"/>
    </vehicle>
    <vehicle id="378" depart="151.20">
        <route edges="E19 E21 E28 E31 E32 E36 E39 E41"/>
    </vehicle>
    <vehicle id="379" depart="151.60">
        <route edges="E47"/>
    </vehicle>
    <vehicle id="380" depart="152.00">
        <route edges="E12 E16 E18 E19 E21 E28 E31 E32 E36 E39 E48 gneE22 E53 E55"/>
    </vehicle>
    <vehicle id="382" depart="152.80">
        <route edges="E47 E38 E37 E35 E30 E29 E27 E20 E17 E15 E14"/>
    </vehicle>
    <vehicle id="389" depart="155.60">
        <route edges="E25 E20 E17 E15 E14"/>
    </vehicle>
    <vehicle id="395" depart="158.00">
        <route edges="E46 E38 E37 E35 E30 E29 E27 E20 E17 E15 E11 E9"/>
    </vehicle>
    <vehicle id="398" depart="159.20">
        <route edges="E5 E10 E12 E16 E18 E19 E21 E28 E31 E32 E36 E39 E48"/>
    </vehicle>
    <vehicle id="399" depart="159.60">
        <route edges="E19 E21 E23"/>
    </vehicle>
    <vehicle id="400" depart="160.00">
        <route edges="E13 E16 E18"/>
    </vehicle>
    <vehicle id="401" depart="160.40">
        <route edges="E42 E38 E37 E35 E30 E29 E27 E20 E17 E15 E11 E9 E2"/>
    </vehicle>
    <vehicle id="404" depart="161.60">
        <route edges="E19"/>
    </vehicle>
    <vehicle id="407" depart="162.80">
        <route edges="E28 E31 E32 E36 E39 E48 gneE22 E53 E57 E58"/>
    </vehicle>
    <vehicle id="417" depart="166.80">
        <route edges="E13 E11 E9 E2"/>
    </vehicle>
    <vehicle id="419" depart="167.60">
        <route edges="E42 E38 E37 E35 E30 E29 E27 E20 E17 E15 E11 E9 E6"/>
    </vehicle>
    <vehicle id="420" depart="168.00">
        <route edges="E37 E35 E30"/>
    </vehicle>
    <vehicle id="421" depart="168.40">
        <route edges="E50 E49 E47 E38 E37 E35 E30 E29 E27 E20 E17"/>
    </vehicle>
    <vehicle id="422" depart="168.80">
        <route edges="E4 E10 E12 E16 E18 E19 E21 E28 E31 E32 E36 E39 E45"/>
    </vehicle>
    <vehicle id="424" depart="169.60">
        <route edges="E39 E48"/>
    </vehicle>
    <vehicle id="426" depart="170.40">
        <route edges="E56 E52 E50 E49 E47 E38"/>
    </vehicle>
    <vehicle id="432" depart="172.80">
        <route edges="E52 E50 E49 E47 E38 E37 E35 E30 E29 E27 E20 E17"/>
    </vehicle>
    <vehicle id="438" depart="175.20">
        <route edges="E10 E12"/>
    </vehicle>
    <vehicle id="448" depart="179.20">
        <route edges="E16 E18 E19 E21 E24"/>
    </vehicle>
    <vehicle id="449" depart="179.60">
        <route edges="E54 E52 E50 E49 E47 E41"/>
    </vehicle>
    <vehicle id="450" depart="180.00">
        <route edges="E35 E30 E29 E27 E20 E17 E15 E11 E9 E6"/>
    </vehicle>
    <vehicle id="451" depart="180.40">
        <route edges="E54 E52 E50 E49 E47 E38 E37 E35 E30 E29"/>
    </vehicle>
    <vehicle id="452" depart="180.80">
        <route edges="E38 E37 E35 E34"/>
    </vehicle>
    <vehicle id="455" depart="182.00">
        <route edges="E18 E19 E21 E28 E31 E32 E36 E39"/>
    </vehicle>
    <vehicle id="456" depart="182.40">
        <route edges="E25 E20 E17 E15"/>
    </vehicle>
    <vehicle id="459" depart="183.60">
        <route edges="E50 E49 E47"/>
    </vehicle>
    <vehicle id="462" depart="184.80">
        <route edges="E40 E42 E38 E37 E35 E30 E29 E27 E20 E17 E15 E11 E9"/>
    </vehicle>
    <vehicle id="464" depart="185.60">
        <route edges="E21 E24"/>
    </vehicle>
    <vehicle id="472" depart="188.80">
        <route edges="E35 E30 E29 E27 E24"/>
    </vehicle>
    <vehicle id="475" depart="190.00">
        <route edges="E33 E36 E39 E41"/>
    </vehicle>
    <vehicle id="479" depart="191.60">
        <route edges="E13 E16 E18 E19 E21 E28 E31 E32 E36 E39 E48"/>
    </vehicle>
    <vehicle id="480" depart="192.00">
        <route edges="E25 E28 E31 E32 E36 E39 E41"/>
    </vehicle>
    <vehicle id="484" depart="193.60">
        <route edges="E4 E10 E12 E16 E18 E19 E21 E24"/>
    </vehicle>
    <vehicle id="487" depart="194.80">
        <route edges="E40 E42 E38 E37 E35 E30 E29 E27 E20 E17 E15 E11 E9 E2 E0"/>
    </vehicle>
    <vehicle id="490" depart="196.00">
        <route edges="E40 E42 E38 E37 E35 E30 E29 E27 E20 E17 E15 E11"/>
    </vehicle>
    <vehicle id="495" depart="198.00">
        <route edges="E52 E50 E49 E47 E38 E37 E35 E30 E29 E27 E20"/>
    </vehicle>
    <vehicle id="505" depart="202.00">
        <route edges="E15 E11 E9 E2 E0"/>
    </vehicle>
    <vehicle id="513" depart="205.20">
        <route edges="E19 E21"/>
    </vehicle>
    <vehicle id="514" depart="205.60">
        <route edges="E12 E16"/>
    </vehicle>
    <vehicle id="516" depart="206.40">
        <route edges="E44 E46 E48 gneE22 E53 E55"/>
    </vehicle>
    <vehicle id="517" depart="206.80">
        <route edges="E25 E28 E31 E32 E34"/>
    </vehicle>
    <vehicle id="519" depart="207.60">
        <route edges="E8 E10"/>
    </vehicle>
    <vehicle id="521" depart="208.40">
        <route edges="E4 E10 E12 E16 E18 E19 E21 E28 E31 E32 E36 E39 E48"/>
    </vehicle>
    <vehicle id="524" depart="209.60">
        <route edges="E26 E25 E28 E31 E32 E36 E39 E48 gneE22 E53 E57 E58"/>
    </vehicle>
    <vehicle id="527" depart="210.80">
        <route edges="E5 E10 E12 E16 E18 E19 E21 E28 E31 E32 E36"/>
    </vehicle>
    <vehicle id="529" depart="211.60">
        <route edges="E44 E46 E38"/>
    </vehicle>
    <vehicle id="530" depart="212.00">
        <route edges="E5 E10 E12 E16 E18 E19 E21 E23"/>
    </vehicle>
    <vehicle id="533" depart="213.20">
        <route edges="E26 E25 E28 E31 E32 E36 E39"/>
    </vehicle>
    <vehicle id="534" depart="213.60">
        <route edges="E10 E12 E16 E18 E19 E21"/>
    </vehicle>
    <vehicle id="537" depart="214.80">
        <route edges="E40 E42 E38 E37 E35 E30 E29 E27"/>
    </vehicle>
    <vehicle id="538" depart="215.20">
        <route edges="E42 E38 E37 E35 E30 E29 E27 E20 E17 E15"/>
    </vehicle>
    <vehicle id="540" depart="216.00">
        <route edges="E26 E25 E28 E31 E32 E36 E39 E48 gneE22 E53"/>
    </vehicle>
    <vehicle id="545" depart="218.00">
        <route edges="E13 E11"/>
    </vehicle>
    <vehicle id="548" depart="219.20">
        <route edges="E28"/>
    </vehicle>
    <vehicle id="549" depart="219.60">
        <route edges="E46 E38 E37"/>
    </vehicle>
    <vehicle id="550" depart="220.00">
        <route edges="E42 E48 gneE22"/>
    </vehicle>
    <vehicle id="552" depart="220.80">
        <route edges="E1 E4 E10 E12"/>
    </vehicle>
    <vehicle id="556" depart="222.40">
        <route edges="E30 E29 E27 E20 E17 E15 E11 E9 E6"/>
    </vehicle>
    <vehicle id="558" depart="223.20">
        <route edges="E33 E30 E29 E27 E20 E17 E15"/>
    </vehicle>
    <vehicle id="559" depart="223.60">
        <route edges="E54 E52 E50 E49 E47 E38 E37 E35 E30 E29 E27 E23"/>
    </vehicle>
    <vehicle id="563" depart="225.20">
        <route edges="E31 E32 E36 E39 E48 gneE22"/>
    </vehicle>
    <vehicle id="564" depart="225.60">
        <route edges="E10 E12 E16 E18 E19"/>
    </vehicle>
    <vehicle id="566" depart="226.40">
        <route edges="E54 E52 E50 E49 E47 E38 E37 E35"/>
    </vehicle>
    <vehicle id="567" depart="226.80">
        <route edges="E8 E10 E12 E16 E18 E19 E21 E28 E31 E32 E36 E39 E48 gneE22 E53 E55"/>
    </vehicle>
    <vehicle id="569" depart="227.60">
        <route edges="E32 E36 E39 E45 E43"/>
    </vehicle>
    <vehicle id="571" depart="228.40">
        <route edges="E49 E47 E38 E37 E35 E30 E29 E27 E20 E17 E15"/>
    </vehicle>
    <vehicle id="572" depart="228.80">
        <route edges="E30 E29 E27 E20 E17 E15 E11 E9 E2 E0"/>
    </vehicle>
    <vehicle id="576" depart="230.40">
        <route edges="E1 E4 E10 E12 E16 E18 E19 E21 E28 E31 E32 E36 E39"/>
    </vehicle>
    <vehicle id="578" depart="231.20">
        <route edges="E10 E12 E16 E18 E19"/>
    </vehicle>
    <vehicle id="580" depart="232.00">
        <route edges="E52"/>
    </vehicle>
    <vehicle id="581" depart="232.40">
        <route edges="E40 E42 E38 E37 E35 E30 E29 E27 E24"/>
    </vehicle>
    <vehicle id="582" depart="232.80">
        <route edges="E22 E20 E17"/>
    </vehicle>
    <vehicle id="583" depart="233.20">
        <route edges="E26 E25 E20 E17 E15 E11 E9 E2"/>
    </vehicle>
    <vehicle id="584" depart="233.60">
        <route edges="E18 E19 E21 E28 E31 E32 E36"/>
    </vehicle>
    <vehicle id="586" depart="234.40">
        <route edges="E17 E15 E11 E9"/>
    </vehicle>
    <vehicle id="587" depart="234.80">
        <route edges="E44 E46 E38 E37 E35 E30 E29 E27 E20 E17 E15 E11 E9 E6"/>
    </vehicle>
    <vehicle id="592" depart="236.80">
        <route edges="E47 E38 E37 E35 E30 E29 E27 E20 E17 E15 E11 E9 E7"/>
    </vehicle>
    <vehicle id="593" depart="237.20">
        <route edges="E49 E47 E38 E37 E35 E30 E29 E27 E23"/>
    </vehicle>
    <vehicle id="594" depart="237.60">
        <route edges="E50 E49 E47 E38 E37 E35 E30 E29 E27 E20 E17 E15"/>
    </vehicle>
    <vehicle id="597" depart="238.80">
        <route edges="E38 E37 E35 E30 E29 E27 E20 E17 E15 E11 E9"/>
    </vehicle>
    <vehicle id="601" depart="240.40">
        <route edges="E8 E10 E12 E16 E18 E19 E21"/>
    </vehicle>
    <vehicle id="602" depart="240.80">
        <route edges="E37 E35 E30 E29 E27 E20 E17 E15"/>
    </vehicle>
    <vehicle id="604" depart="241.60">
        <route edges="E52 E50 E49 E47 E41"/>
    </vehicle>
    <vehicle id="606" depart="242.40">
        <route edges="E31 E32"/>
    </vehicle>
    <vehicle id="607" depart="242.80">
        <route edges="E40 E42 E45 E43"/>
    </vehicle>
    <vehicle id="611" depart="244.40">
        <route edges="E26 E25 E23"/>
    </vehicle>
    <vehicle id="613" depart="245.20">
        <route edges="E36 E39"/>
    </vehicle>
    <vehicle id="614" depart="245.60">
        <route edges="E12 E16 E18 E19 E21 E28 E31 E32 E36 E39"/>
    </vehicle>
    <vehicle id="621" depart="248.40">
        <route edges="E38 E37 E35 E30 E29 E27 E20 E17 E15 E11 E9 E7"/>
    </vehicle>
    <vehicle id="623" depart="249.20">
        <route edges="E5 E10 E12 E16 E18"/>
    </vehicle>
    <vehicle id="625" depart="250.00">
        <route edges="E46 E38 E37 E35 E30 E29 E27 E20 E17 E15 E11 E9 E6"/>
    </vehicle>
    <vehicle id="626" depart="250.40">
        <route edges="E19 E21 E28 E31 E32 E34"/>
    </vehicle>
    <vehicle id="628" depart="251.20">
        <route edges="E11 E9 E7"/>
    </vehicle>
    <vehicle id="629" depart="251.60">
        <route edges="E21 E23"/>
    </vehicle>
    <vehicle id="633" depart="253.20">
        <route edges="E27 E20 E17 E15"/>
    </vehicle>
    <vehicle id="635" depart="254.00">
        <route edges="E32 E36 E39 E48"/>
    </vehicle>
    <vehicle id="636" depart="254.40">
        <route edges="E1 E4 E10 E12 E16"/>
    </vehicle>
    <vehicle id="637" depart="254.80">
        <route edges="E10 E12 E16 E18 E19 E21 E23"/>
    </vehicle>
    <vehicle id="639" depart="255.60">
        <route edges="E44 E46 E48 gneE22 E53 E57 E58"/>
    </vehicle>
    <vehicle id="640" depart="256.00">
        <route edges="E56 E52 E50 E49 E47 E38 E37 E35 E30 E29 E27 E20 E17 E15 E11 E9 E6"/>
    </vehicle>
    <vehicle id="641" depart="256.40">
        <route edges="E32 E36 E39 E48 gneE22"/>
    </vehicle>
    <vehicle id="642" depart="256.80">
        <route edges="E48 gneE22 E53 E57 E58"/>
    </vehicle>
    <vehicle id="643" depart="257.20">
        <route edges="E13 E16 E18 E19 E21"/>
    </vehicle>
    <vehicle id="644" depart="257.60">
        <route edges="E53 E55"/>
    </vehicle>
    <vehicle id="648" depart="259.20">
        <route edges="E21 E28 E31 E32 E36 E39"/>
    </vehicle>
    <vehicle id="650" depart="260.00">
        <route edges="E35 E30 E29 E27 E20 E17 E15 E11 E9 E6"/>
    </vehicle>
    <vehicle id="657" depart="262.80">
        <route edges="E38 E37 E35 E30 E29 E27 E20 E17 E15 E11 E9 E6"/>
    </vehicle>
    <vehicle id="660" depart="264.00">
        <route edges="E13 E16 E18 E19 E21 E28 E31 E32 E36 E39 E48"/>
    </vehicle>
    <vehicle id="662" depart="264.80">
        <route edges="E26 E25 E20 E17 E15 E11 E9 E7"/>
    </vehicle>
    <vehicle id="663" depart="265.20">
        <route edges="E10 E12 E16 E18 E19 E21 E28 E31 E32 E36 E39 E48 gneE22 E53 E57"/>
    </vehicle>
    <vehicle id="666" depart="266.40">
        <route edges="E25 E28 E31 E32 E36"/>
    </vehicle>
    <vehicle id="667" depart="266.80">
        <route edges="E47 E45 E43"/>
    </vehicle>
    <vehicle id="668" depart="267.20">
        <route edges="E25 E20 E17 E15 E11 E9 E7"/>
    </vehicle>
    <vehicle id="672" depart="268.80">
        <route edges="E18 E19 E21 E23"/>
    </vehicle>
    <vehicle id="678" depart="271.20">
        <route edges="E56 E52 E50 E49 E47 E38 E37 E35"/>
    </vehicle>
    <vehicle id="682" depart="272.80">
        <route edges="E5 E10 E12 E16 E18 E19 E21 E28 E31"/>
    </vehicle>
    <vehicle id="687" depart="274.80">
        <route edges="E56 E52 E50 E49 E47"/>
    </vehicle>
    <vehicle id="688" depart="275.20">
        <route edges="E19 E21 E28 E31 E32 E36 E39 E41"/>
    </vehicle>
    <vehicle id="689" depart="275.60">
        <route edges="E12 E16 E18 E19 E21 E28 E31 E32 E36 E39"/>
    </vehicle>
    <vehicle id="690" depart="276.00">
        <route edges="E36 E39 E48 gneE22"/>
    </vehicle>
    <vehicle id="691" depart="276.40">
        <route edges="E5 E10 E12 E16 E18 E19 E21 E28"/>
    </vehicle>
    <vehicle id="693" depart="277.20">
        <route edges="E35 E30 E29 E27 E24"/>
    </vehicle>
    <vehicle id="695" depart="278.00">
        <route edges="E12 E16 E18 E19"/>
    </vehicle>
    <vehicle id="697" depart="278.80">
        <route edges="E31"/>
    </vehicle>
    <vehicle id="710" depart="284.00">
        <route edges="E32 E36 E39 E41"/>
    </vehicle>
    <vehicle id="711" depart="284.40">
        <route edges="E17 E15 E11 E9 E2 E0"/>
    </vehicle>
    <vehicle id="717" depart="286.80">
        <route edges="E44 E46 E38 E37 E35 E30 E29"/>
    </vehicle>
    <vehicle id="720" depart="288.00">
        <route edges="E56 E52 E50 E49 E47 E38 E37 E35 E30 E29 E27 E20 E17 E15 E11 E9 E2"/>
    </vehicle>
    <vehicle id="726" depart="290.40">
        <route edges="E42 E38 E37 E35 E30 E29 E27 E24"/>
    </vehicle>