<?xml version="1.0" encoding="UTF-8"?>

<!-- generated on 2021-09-29 19:49:21 by Eclipse SUMO duarouter Version 1.9.2
<configuration xmlns:xsi="http://www.w3.org/2001/XMLSchema-instance" xsi:noNamespaceSchemaLocation="http://sumo.dlr.de/xsd/duarouterConfiguration.xsd">

    <input>
        <net-file value="/home/sonic/Desktop/nets/case06/intersection.net.xml"/>
        <route-files value="trips.trips.xml"/>
    </input>

    <output>
        <output-file value="intersection_random44.rou.xml"/>
        <alternatives-output value="intersection_random44.rou.alt.xml"/>
    </output>

    <time>
        <begin value="0"/>
        <end value="18000.0"/>
    </time>

    <report>
        <no-warnings value="true"/>
        <ignore-errors value="true"/>
        <no-step-log value="true"/>
    </report>

</configuration>
-->

<routes xmlns:xsi="http://www.w3.org/2001/XMLSchema-instance" xsi:noNamespaceSchemaLocation="http://sumo.dlr.de/xsd/routes_file.xsd">
    <vehicle id="0" depart="0.00">
        <route edges="E15"/>
    </vehicle>
    <vehicle id="3" depart="0.90">
        <route edges="E44 E46 E48 gneE22 E53 E57 E58"/>
    </vehicle>
    <vehicle id="5" depart="1.50">
        <route edges="E5 E10 E12 E16 E18 E19 E21 E23"/>
    </vehicle>
    <vehicle id="7" depart="2.10">
        <route edges="E46 E38 E37 E35 E30 E29 E27 E20 E17 E15 E11 E9 E6"/>
    </vehicle>
    <vehicle id="10" depart="3.00">
        <route edges="E47 E38 E37 E35 E30 E29"/>
    </vehicle>
    <vehicle id="14" depart="4.20">
        <route edges="E12 E16 E18 E19 E21 E28 E31 E32 E36 E39 E48 gneE22"/>
    </vehicle>
    <vehicle id="18" depart="5.40">
        <route edges="E4 E10"/>
    </vehicle>
    <vehicle id="22" depart="6.60">
        <route edges="E48 gneE22 E53"/>
    </vehicle>
    <vehicle id="23" depart="6.90">
        <route edges="E20 E17 E15 E11"/>
    </vehicle>
    <vehicle id="25" depart="7.50">
        <route edges="E8 E2"/>
    </vehicle>
    <vehicle id="26" depart="7.80">
        <route edges="E21 E28 E31 E32 E36 E39 E48 gneE22"/>
    </vehicle>
    <vehicle id="27" depart="8.10">
        <route edges="E42 E38 E37 E35 E30 E29 E27 E20 E17 E15 E11"/>
    </vehicle>
    <vehicle id="32" depart="9.60">
        <route edges="E42 E48 gneE22 E53"/>
    </vehicle>
    <vehicle id="37" depart="11.10">
        <route edges="E45"/>
    </vehicle>
    <vehicle id="39" depart="11.70">
        <route edges="E4 E10 E12 E16 E18 E19 E21 E28 E31 E32 E36 E39 E48 gneE22"/>
    </vehicle>
    <vehicle id="40" depart="12.00">
        <route edges="E54 E52 E50 E49 E47 E38 E37 E35 E30 E29 E27 E20 E17 E15 E11 E9 E2"/>
    </vehicle>
    <vehicle id="42" depart="12.60">
        <route edges="E46 E38 E37 E35 E30 E29 E27 E20 E17 E15 E11"/>
    </vehicle>
    <vehicle id="43" depart="12.90">
        <route edges="E31 E32 E36 E39 E45"/>
    </vehicle>
    <vehicle id="44" depart="13.20">
        <route edges="E28 E31 E32 E36 E39 E48 gneE22 E53 E57"/>
    </vehicle>
    <vehicle id="48" depart="14.40">
        <route edges="E49 E47 E38 E37"/>
    </vehicle>
    <vehicle id="49" depart="14.70">
        <route edges="E49 E47 E38 E37 E35 E30 E29 E27 E20 E17 E15 E11 E9 E2"/>
    </vehicle>
    <vehicle id="51" depart="15.30">
        <route edges="E47 E38 E37 E35 E30 E29"/>
    </vehicle>
    <vehicle id="52" depart="15.60">
        <route edges="E44 E46 E38 E37 E35 E30"/>
    </vehicle>
    <vehicle id="54" depart="16.20">
        <route edges="E15 E11 E9 E6"/>
    </vehicle>
    <vehicle id="60" depart="18.00">
        <route edges="E56 E52 E50 E49 E47 E38 E37 E35 E30 E29 E27 E20"/>
    </vehicle>
    <vehicle id="63" depart="18.90">
        <route edges="E4 E10 E12 E14"/>
    </vehicle>
    <vehicle id="66" depart="19.80">
        <route edges="E38 E37 E35 E30 E29"/>
    </vehicle>
    <vehicle id="67" depart="20.10">
        <route edges="E21 E28 E31 E32 E36 E39 E48 gneE22 E53 E57"/>
    </vehicle>
    <vehicle id="69" depart="20.70">
        <route edges="E31 E32 E36 E39 E48 gneE22 E53 E57"/>
    </vehicle>
    <vehicle id="70" depart="21.00">
        <route edges="E1 E4 E10 E12 E16 E18 E19 E21 E28 E31 E32 E36 E39"/>
    </vehicle>
    <vehicle id="75" depart="22.50">
        <route edges="E56 E52 E50 E49 E47 E38 E37 E35 E30 E29 E27 E20 E17 E15 E11 E9 E2 E0"/>
    </vehicle>
    <vehicle id="79" depart="23.70">
        <route edges="E4 E6"/>
    </vehicle>
    <vehicle id="81" depart="24.30">
        <route edges="E22 E28 E31 E32"/>
    </vehicle>
    <vehicle id="83" depart="24.90">
        <route edges="E28 E31 E32 E36 E39 E48 gneE22"/>
    </vehicle>
    <vehicle id="84" depart="25.20">
        <route edges="E22 E28 E31 E32 E36 E39 E48 gneE22 E53 E57"/>
    </vehicle>
    <vehicle id="85" depart="25.50">
        <route edges="E39 E48"/>
    </vehicle>
    <vehicle id="92" depart="27.60">
        <route edges="E13 E16 E18 E19 E21 E28 E31 E32"/>
    </vehicle>
    <vehicle id="96" depart="28.80">
        <route edges="E54 E52 E50 E49 E47 E38 E37 E35 E34"/>
    </vehicle>
    <vehicle id="98" depart="29.40">
        <route edges="E49 E47 E38 E37 E35 E30 E29 E27 E20"/>
    </vehicle>
    <vehicle id="99" depart="29.70">
        <route edges="E8 E10 E12 E16 E18 E19 E21 E28 E31 E32 E34"/>
    </vehicle>
    <vehicle id="100" depart="30.00">
        <route edges="E56 E52"/>
    </vehicle>
    <vehicle id="101" depart="30.30">
        <route edges="E22 E20 E17"/>
    </vehicle>
    <vehicle id="103" depart="30.90">
        <route edges="E13 E16 E18 E19 E21 E28 E31 E32 E36 E39 E48 gneE22 E53 E57"/>
    </vehicle>
    <vehicle id="105" depart="31.50">
        <route edges="E52 E50 E49 E47 E38"/>
    </vehicle>
    <vehicle id="107" depart="32.10">
        <route edges="E57"/>
    </vehicle>
    <vehicle id="109" depart="32.70">
        <route edges="E5 E10 E12 E16 E18 E19 E21 E28 E31 E32 E36 E39"/>
    </vehicle>
    <vehicle id="111" depart="33.30">
        <route edges="E4 E10 E12 E16 E18 E19 E21 E28 E31 E32 E36 E39 E48"/>
    </vehicle>
    <vehicle id="112" depart="33.60">
        <route edges="E35 E30 E29"/>
    </vehicle>
    <vehicle id="113" depart="33.90">
        <route edges="E29 E27"/>
    </vehicle>
    <vehicle id="114" depart="34.20">
        <route edges="E42 E38 E37 E35 E30 E29 E27 E20 E17 E15 E11 E9 E2 E0"/>
    </vehicle>
    <vehicle id="116" depart="34.80">
        <route edges="E19 E21 E28 E31 E32 E36 E39 E48 gneE22 E53 E55"/>
    </vehicle>
    <vehicle id="121" depart="36.30">
        <route edges="E30 E29 E27 E20 E17 E15 E11 E9 E2"/>
    </vehicle>
    <vehicle id="122" depart="36.60">
        <route edges="E26 E25 E28 E31 E32"/>
    </vehicle>
    <vehicle id="123" depart="36.90">
        <route edges="gneE22"/>
    </vehicle>
    <vehicle id="126" depart="37.80">
        <route edges="E39 E48 gneE22 E53 E55"/>
    </vehicle>
    <vehicle id="127" depart="38.10">
        <route edges="E37 E35"/>
    </vehicle>
    <vehicle id="136" depart="40.80">
        <route edges="E47"/>
    </vehicle>
    <vehicle id="137" depart="41.10">
        <route edges="E16 E18 E19 E21 E28 E31 E32 E36 E39 E45"/>
    </vehicle>
    <vehicle id="139" depart="41.70">
        <route edges="E52 E50 E49 E47 E38 E37 E35"/>
    </vehicle>
    <vehicle id="140" depart="42.00">
        <route edges="E27 E24"/>
    </vehicle>
    <vehicle id="141" depart="42.30">
        <route edges="E46 E38 E37 E35 E30 E29 E27 E20 E17 E15 E11 E9 E7"/>
    </vehicle>
    <vehicle id="142" depart="42.60">
        <route edges="E54 E52 E50 E49 E47 E38 E37 E35 E30"/>
    </vehicle>
    <vehicle id="148" depart="44.40">
        <route edges="E56 E52 E50 E49 E47 E41"/>
    </vehicle>
    <vehicle id="150" depart="45.00">
        <route edges="E4 E10 E12 E16 E18 E19 E21 E23"/>
    </vehicle>
    <vehicle id="152" depart="45.60">
        <route edges="E46"/>
    </vehicle>
    <vehicle id="153" depart="45.90">
        <route edges="E9 E7"/>
    </vehicle>
    <vehicle id="158" depart="47.40">
        <route edges="E22 E28 E31 E32 E36 E39 E48 gneE22 E53 E57"/>
    </vehicle>
    <vehicle id="163" depart="48.90">
        <route edges="E38 E37 E35 E30 E29"/>
    </vehicle>
    <vehicle id="165" depart="49.50">
        <route edges="E5 E10 E12 E16 E18 E19 E21"/>
    </vehicle>
    <vehicle id="166" depart="49.80">
        <route edges="E44 E46 E38"/>
    </vehicle>
    <vehicle id="169" depart="50.70">
        <route edges="E30 E29 E27 E20 E17 E15 E11 E9 E6"/>
    </vehicle>
    <vehicle id="175" depart="52.50">
        <route edges="E27 E20 E17 E15"/>
    </vehicle>
    <vehicle id="177" depart="53.10">
        <route edges="E33 E36 E39"/>
    </vehicle>
    <vehicle id="179" depart="53.70">
        <route edges="E20 E17 E15 E11"/>
    </vehicle>
    <vehicle id="181" depart="54.30">
        <route edges="E19 E21 E28 E31 E32 E36 E39 E41"/>
    </vehicle>
    <vehicle id="182" depart="54.60">
        <route edges="E56 E52 E50 E49"/>
    </vehicle>
    <vehicle id="183" depart="54.90">
        <route edges="E35 E30 E29 E27 E20"/>
    </vehicle>
    <vehicle id="185" depart="55.50">
        <route edges="E12 E16 E18 E19 E21 E28 E31 E32 E34"/>
    </vehicle>
    <vehicle id="188" depart="56.40">
        <route edges="E28 E31 E32"/>
    </vehicle>
    <vehicle id="189" depart="56.70">
        <route edges="E46 E38 E37 E35 E30 E29 E27 E20 E17 E15"/>
    </vehicle>
    <vehicle id="190" depart="57.00">
        <route edges="E1 E4 E10 E12 E16 E18 E19 E21 E28 E31 E32 E36 E39 E48 gneE22"/>
    </vehicle>
    <vehicle id="191" depart="57.30">
        <route edges="E12 E16 E18 E19 E21 E28 E31 E32 E36 E39 E48 gneE22 E53 E55"/>
    </vehicle>
    <vehicle id="194" depart="58.20">
        <route edges="E32 E36 E39 E45"/>
    </vehicle>
    <vehicle id="197" depart="59.10">
        <route edges="E16 E18 E19 E21 E28 E31 E32 E36 E39 E48 gneE22"/>
    </vehicle>
    <vehicle id="211" depart="63.30">
        <route edges="E54 E52 E50 E49 E47 E38 E37 E35 E30 E29"/>
    </vehicle>
    <vehicle id="212" depart="63.60">
        <route edges="E13 E16 E18 E19 E21 E28 E31 E32 E36 E39"/>
    </vehicle>
    <vehicle id="213" depart="63.90">
        <route edges="E12 E16 E18 E19 E21 E28 E31 E32 E36 E39 E48 gneE22 E53 E57"/>
    </vehicle>
    <vehicle id="218" depart="65.40">
        <route edges="E12 E16 E18 E19 E21 E28 E31 E32 E36 E39 E45 E43"/>
    </vehicle>
    <vehicle id="220" depart="66.00">
        <route edges="E38 E37 E35"/>
    </vehicle>
    <vehicle id="221" depart="66.30">
        <route edges="E54 E52 E50 E49 E47 E38 E37 E35 E30 E29 E27 E24"/>
    </vehicle>
    <vehicle id="223" depart="66.90">
        <route edges="E38 E37 E35 E30 E29 E27 E24"/>
    </vehicle>
    <vehicle id="232" depart="69.60">
        <route edges="E35 E30"/>
    </vehicle>
    <vehicle id="234" depart="70.20">
        <route edges="E35 E30 E29 E27 E20 E17 E15 E14"/>
    </vehicle>
    <vehicle id="240" depart="72.00">
        <route edges="E37 E35 E30 E29 E27 E20 E17 E15 E11 E9 E6"/>
    </vehicle>
    <vehicle id="241" depart="72.30">
        <route edges="E26 E25 E28 E31 E32 E36 E39 E48 gneE22 E53 E57"/>
    </vehicle>
    <vehicle id="242" depart="72.60">
        <route edges="E8 E10 E12 E16 E18 E19 E21 E28 E31 E32 E34"/>
    </vehicle>
    <vehicle id="245" depart="73.50">
        <route edges="E19 E21 E28 E31 E32 E34"/>
    </vehicle>
    <vehicle id="246" depart="73.80">
        <route edges="E47 E38 E37 E35 E30 E29 E27 E23"/>
    </vehicle>
    <vehicle id="247" depart="74.10">
        <route edges="E32 E34"/>
    </vehicle>
    <vehicle id="250" depart="75.00">
        <route edges="E42 E38 E37 E35 E30 E29 E27 E20 E17 E15 E11"/>
    </vehicle>
    <vehicle id="254" depart="76.20">
        <route edges="E16 E18 E19 E21 E28 E31 E32 E36 E39 E48 gneE22 E53"/>
    </vehicle>
    <vehicle id="258" depart="77.40">
        <route edges="E11 E9 E7"/>
    </vehicle>
    <vehicle id="260" depart="78.00">
        <route edges="E49"/>
    </vehicle>
    <vehicle id="261" depart="78.30">
        <route edges="E54 E52 E50 E49 E47 E38 E37 E35 E30 E29 E27 E20 E17 E15 E11"/>
    </vehicle>
    <vehicle id="264" depart="79.20">
        <route edges="E22 E28 E31 E32 E36 E39 E48 gneE22 E53"/>
    </vehicle>
    <vehicle id="267" depart="80.10">
        <route edges="E50 E49 E47 E38 E37 E35 E30 E29 E27 E20 E17 E15 E11 E9 E7"/>
    </vehicle>
    <vehicle id="269" depart="80.70">
        <route edges="E47 E38 E37 E35 E30 E29 E27 E20 E17"/>
    </vehicle>
    <vehicle id="272" depart="81.60">
        <route edges="E10 E12 E16 E18 E19 E21 E28 E31 E32 E36 E39 E41"/>
    </vehicle>
    <vehicle id="273" depart="81.90">
        <route edges="E1 E4 E10 E12 E16 E18 E19 E21 E28 E31 E32 E36 E39 E48 gneE22 E53 E57 E58"/>
    </vehicle>
    <vehicle id="274" depart="82.20">
        <route edges="E4 E10 E12 E16 E18 E19 E21 E28 E31 E32 E36"/>
    </vehicle>
    <vehicle id="275" depart="82.50">
        <route edges="E25 E28 E31 E32 E36 E39 E45"/>
    </vehicle>
    <vehicle id="276" depart="82.80">
        <route edges="E10"/>
    </vehicle>
    <vehicle id="277" depart="83.10">
        <route edges="E19 E21"/>
    </vehicle>
    <vehicle id="279" depart="83.70">
        <route edges="E4 E10 E12 E16 E18 E19 E21 E28 E31 E32 E36"/>
    </vehicle>
    <vehicle id="283" depart="84.90">
        <route edges="E38 E37 E35 E30 E29 E27 E20 E17 E15 E11"/>
    </vehicle>
    <vehicle id="284" depart="85.20">
        <route edges="E19 E21 E28 E31"/>
    </vehicle>
    <vehicle id="285" depart="85.50">
        <route edges="E50 E49 E47 E38 E37 E35 E30 E29 E27 E20 E17 E15 E11 E9 E2 E0"/>
    </vehicle>
    <vehicle id="290" depart="87.00">
        <route edges="E47 E38 E37 E35 E30 E29 E27 E20 E17 E15"/>
    </vehicle>
    <vehicle id="291" depart="87.30">
        <route edges="E20 E17 E15 E11 E9 E7"/>
    </vehicle>
    <vehicle id="294" depart="88.20">
        <route edges="E26 E25 E28 E31 E32 E36 E39"/>
    </vehicle>
    <vehicle id="295" depart="88.50">
        <route edges="E4 E10 E12 E16 E18 E19 E21 E28 E31 E32 E36 E39 E48 gneE22"/>
    </vehicle>
    <vehicle id="296" depart="88.80">
        <route edges="E35 E30 E29 E27 E20 E17 E15 E11 E9 E6"/>
    </vehicle>
    <vehicle id="298" depart="89.40">
        <route edges="E25 E28 E31 E32 E36 E39 E45 E43"/>
    </vehicle>
    <vehicle id="300" depart="90.00">
        <route edges="E45 E43"/>
    </vehicle>
    <vehicle id="312" depart="93.60">
        <route edges="E37 E35 E30 E29 E27 E20 E17"/>
    </vehicle>
    <vehicle id="319" depart="95.70">
        <route edges="E1 E4 E10 E12 E16 E18 E19 E21 E28 E31 E32 E36 E39 E48 gneE22 E53"/>
    </vehicle>
    <vehicle id="321" depart="96.30">
        <route edges="E18"/>
    </vehicle>
    <vehicle id="322" depart="96.60">
        <route edges="E29"/>
    </vehicle>
    <vehicle id="323" depart="96.90">
        <route edges="E10 E12 E16 E18 E19 E21"/>
    </vehicle>
    <vehicle id="324" depart="97.20">
        <route edges="E5 E10 E12"/>
    </vehicle>
    <vehicle id="330" depart="99.00">
        <route edges="E20 E17 E15 E11 E9 E2 E0"/>
    </vehicle>
    <vehicle id="332" depart="99.60">
        <route edges="E33 E30 E29 E27 E20 E17 E15 E11 E9 E2 E0"/>
    </vehicle>
    <vehicle id="333" depart="99.90">
        <route edges="E5 E10 E12 E16 E18 E19 E21 E28 E31 E32 E36 E39 E48 gneE22 E53 E57"/>
    </vehicle>
    <vehicle id="334" depart="100.20">
        <route edges="E54 E52 E50 E49 E47 E38 E37 E35 E30 E29 E27 E20 E17 E15 E11 E9 E7"/>
    </vehicle>
    <vehicle id="335" depart="100.50">
        <route edges="E45"/>
    </vehicle>
    <vehicle id="337" depart="101.10">
        <route edges="E37 E35 E30 E29 E27 E20"/>
    </vehicle>
    <vehicle id="341" depart="102.30">
        <route edges="E35 E30 E29 E27 E23"/>
    </vehicle>
    <vehicle id="342" depart="102.60">
        <route edges="E50 E49"/>
    </vehicle>
    <vehicle id="347" depart="104.10">
        <route edges="E20 E17 E15 E14"/>
    </vehicle>
    <vehicle id="349" depart="104.70">
        <route edges="E29 E27 E20 E17 E15"/>
    </vehicle>
    <vehicle id="362" depart="108.60">
        <route edges="E5 E10 E12 E16 E18 E19"/>
    </vehicle>
    <vehicle id="363" depart="108.90">
        <route edges="E35 E30"/>
    </vehicle>
    <vehicle id="364" depart="109.20">
        <route edges="E54 E52 E50 E49 E47 E38 E37 E35 E30 E29 E27 E20 E17 E15 E11 E9 E2"/>
    </vehicle>
    <vehicle id="366" depart="109.80">
        <route edges="E44 E46 E38 E37 E35 E30 E29 E27 E20 E17 E15 E11"/>
    </vehicle>
    <vehicle id="368" depart="110.40">
        <route edges="E10 E12 E16 E18 E19 E21 E28 E31 E32 E36 E39 E48 gneE22"/>
    </vehicle>
    <vehicle id="369" depart="110.70">
        <route edges="E20 E17 E15 E11 E9 E2"/>
    </vehicle>
    <vehicle id="370" depart="111.00">
        <route edges="E56 E52 E50 E49 E47 E38 E37 E35 E30 E29 E27 E20"/>
    </vehicle>
    <vehicle id="371" depart="111.30">
        <route edges="E44 E46 E38 E37 E35 E30"/>
    </vehicle>
    <vehicle id="373" depart="111.90">
        <route edges="E5 E10 E12 E16 E18 E19 E21 E28 E31 E32 E36 E39 E48 gneE22 E53 E55"/>
    </vehicle>
    <vehicle id="374" depart="112.20">
        <route edges="E40 E42 E48 gneE22"/>
    </vehicle>
    <vehicle id="378" depart="113.40">
        <route edges="E21 E28 E31 E32 E34"/>
    </vehicle>
    <vehicle id="382" depart="114.60">
        <route edges="E22 E20 E17 E15"/>
    </vehicle>
    <vehicle id="386" depart="115.80">
        <route edges="E56 E52 E50 E49 E47 E38 E37"/>
    </vehicle>
    <vehicle id="388" depart="116.40">
        <route edges="E27 E20 E17"/>
    </vehicle>
    <vehicle id="389" depart="116.70">
        <route edges="E46 E38 E37 E35 E30 E29 E27 E20 E17 E15 E11"/>
    </vehicle>
    <vehicle id="390" depart="117.00">
        <route edges="E4 E10 E12 E16 E18 E19 E21 E23"/>
    </vehicle>
    <vehicle id="392" depart="117.60">
        <route edges="E29 E27 E20 E17 E15 E11"/>
    </vehicle>
    <vehicle id="393" depart="117.90">
        <route edges="E44 E46 E38 E37 E35 E30 E29"/>
    </vehicle>
    <vehicle id="395" depart="118.50">
        <route edges="E33 E30 E29 E27 E20 E17 E15 E11 E9 E2"/>
    </vehicle>
    <vehicle id="396" depart="118.80">
        <route edges="E37 E35 E30 E29 E27 E20 E17 E15"/>
    </vehicle>
    <vehicle id="399" depart="119.70">
        <route edges="E13 E16 E18 E19 E21 E28 E31 E32 E36 E39 E48 gneE22 E53 E55"/>
    </vehicle>
    <vehicle id="403" depart="120.90">
        <route edges="E35 E30 E29 E27 E20 E17 E15 E11 E9"/>
    </vehicle>
    <vehicle id="407" depart="122.10">
        <route edges="E33 E36 E39 E48 gneE22 E53 E57"/>
    </vehicle>
    <vehicle id="408" depart="122.40">
        <route edges="E54 E52 E50 E49 E47"/>
    </vehicle>
    <vehicle id="415" depart="124.50">
        <route edges="E49 E47 E38 E37 E35 E30 E29 E27 E24"/>
    </vehicle>
    <vehicle id="417" depart="125.10">
        <route edges="E31 E32 E36 E39 E48 gneE22 E53 E57 E58"/>
    </vehicle>
    <vehicle id="424" depart="127.20">
        <route edges="E50 E49 E47 E38"/>
    </vehicle>
    <vehicle id="425" depart="127.50">
        <route edges="E26 E25 E28 E31 E32 E36 E39"/>
    </vehicle>
    <vehicle id="432" depart="129.60">
        <route edges="E22 E20"/>
    </vehicle>
    <vehicle id="433" depart="129.90">
        <route edges="E10"/>
    </vehicle>
    <vehicle id="434" depart="130.20">
        <route edges="E5 E10 E12"/>
    </vehicle>
    <vehicle id="435" depart="130.50">
        <route edges="E25 E20 E17"/>
    </vehicle>
    <vehicle id="437" depart="131.10">
        <route edges="E4 E10 E12 E16 E18 E19 E21 E28 E31 E32 E36 E39 E45"/>
    </vehicle>
    <vehicle id="438" depart="131.40">
        <route edges="E4 E10 E12 E16 E18 E19 E21 E28 E31 E32 E36 E39 E41"/>
    </vehicle>
    <vehicle id="439" depart="131.70">
        <route edges="E28 E31"/>
    </vehicle>
    <vehicle id="443" depart="132.90">
        <route edges="E52 E50 E49 E47 E38 E37 E35 E30 E29"/>
    </vehicle>
    <vehicle id="444" depart="133.20">
        <route edges="E47 E38 E37 E35 E30 E29 E27 E20 E17 E15 E11 E9 E6"/>
    </vehicle>
    <vehicle id="447" depart="134.10">
        <route edges="E50 E49 E47 E45"/>
    </vehicle>
    <vehicle id="450" depart="135.00">
        <route edges="E36 E39 E48 gneE22 E53"/>
    </vehicle>
    <vehicle id="452" depart="135.60">
        <route edges="E44 E46 E38 E37 E35 E30 E29 E27 E20 E17"/>
    </vehicle>
    <vehicle id="456" depart="136.80">
        <route edges="E50 E49 E47 E38 E37 E35 E30 E29 E27 E20 E17"/>
    </vehicle>
    <vehicle id="462" depart="138.60">
        <route edges="E47 E38 E37 E35 E30"/>
    </vehicle>
    <vehicle id="463" depart="138.90">
        <route edges="E33 E30 E29 E27 E20"/>
    </vehicle>
    <vehicle id="469" depart="140.70">
        <route edges="E46 E38 E37 E35 E30 E29"/>
    </vehicle>
    <vehicle id="474" depart="142.20">
        <route edges="E38 E37 E35 E30"/>
    </vehicle>
    <vehicle id="477" depart="143.10">
        <route edges="E39 E48 gneE22 E53 E55"/>
    </vehicle>
    <vehicle id="479" depart="143.70">
        <route edges="E57"/>
    </vehicle>
    <vehicle id="481" depart="144.30">
        <route edges="E35 E30 E29 E27 E20 E17 E15 E11 E9 E6"/>
    </vehicle>
    <vehicle id="488" depart="146.40">
        <route edges="E44 E46 E38 E37 E35"/>
    </vehicle>
    <vehicle id="493" depart="147.90">
        <route edges="E35 E30 E29 E27 E20 E17 E15"/>
    </vehicle>
    <vehicle id="500" depart="150.00">
        <route edges="E1 E4"/>
    </vehicle>
    <vehicle id="502" depart="150.60">
        <route edges="E21 E28 E31 E32 E36 E39 E45"/>
    </vehicle>
    <vehicle id="503" depart="150.90">
        <route edges="E44 E46 E48 gneE22 E53 E55"/>
    </vehicle>
    <vehicle id="505" depart="151.50">
        <route edges="E18"/>
    </vehicle>
    <vehicle id="512" depart="153.60">
        <route edges="E26 E25 E28 E31 E32 E36 E39"/>
    </vehicle>
    <vehicle id="513" depart="153.90">
        <route edges="E46 E38 E37 E35 E30 E29 E27 E20 E17 E15 E11"/>
    </vehicle>
    <vehicle id="517" depart="155.10">
        <route edges="E46 E38 E37"/>
    </vehicle>
    <vehicle id="518" depart="155.40">
        <route edges="E56 E52 E50 E49 E47 E38 E37 E35 E30"/>
    </vehicle>
    <vehicle id="519" depart="155.70">
        <route edges="E5 E10 E12 E16 E18 E19 E21 E28 E31 E32 E36 E39 E45"/>
    </vehicle>
    <vehicle id="520" depart="156.00">
        <route edges="E25 E20"/>
    </vehicle>
    <vehicle id="522" depart="156.60">
        <route edges="E30 E29 E27 E20 E17 E15 E11 E9 E2 E0"/>
    </vehicle>
    <vehicle id="524" depart="157.20">
        <route edges="E42 E38 E37 E35 E30 E29 E27 E20 E17 E15 E11 E9 E6"/>
    </vehicle>
    <vehicle id="530" depart="159.00">
        <route edges="E8 E10 E12 E16"/>
    </vehicle>
    <vehicle id="532" depart="159.60">
        <route edges="E42 E38 E37 E35 E30 E29"/>
    </vehicle>
    <vehicle id="533" depart="159.90">
        <route edges="E28 E31 E32 E36 E39 E45 E43"/>
    </vehicle>
    <vehicle id="536" depart="160.80">
        <route edges="E28 E31 E32"/>
    </vehicle>
    <vehicle id="540" depart="162.00">
        <route edges="E42 E38"/>
    </vehicle>
    <vehicle id="541" depart="162.30">
        <route edges="E26 E25 E28 E31 E32 E36 E39"/>
    </vehicle>
    <vehicle id="545" depart="163.50">
        <route edges="E8 E10 E12 E16 E18 E19 E21 E28 E31 E32 E36 E39 E41"/>
    </vehicle>
    <vehicle id="546" depart="163.80">
        <route edges="E12 E16 E18"/>
    </vehicle>
    <vehicle id="547" depart="164.10">
        <route edges="E50 E49 E47 E38 E37 E35 E30 E29 E27 E20"/>
    </vehicle>
    <vehicle id="550" depart="165.00">
        <route edges="E46 E38 E37 E35 E30 E29 E27 E20 E17 E15 E11 E9"/>
    </vehicle>
    <vehicle id="551" depart="165.30">
        <route edges="E22 E28 E31 E32 E36 E39 E45"/>
    </vehicle>
    <vehicle id="553" depart="165.90">
        <route edges="E21 E28 E31 E32 E36 E39 E48 gneE22"/>
    </vehicle>
    <vehicle id="554" depart="166.20">
        <route edges="E54 E57 E58"/>
    </vehicle>
    <vehicle id="558" depart="167.40">
        <route edges="E54 E52 E50 E49 E47 E38 E37 E35 E30 E29 E27 E24"/>
    </vehicle>
    <vehicle id="561" depart="168.30">
        <route edges="E18 E19 E21 E28 E31 E32 E36 E39 E45 E43"/>
    </vehicle>
    <vehicle id="562" depart="168.60">
        <route edges="E18 E19 E21 E28 E31 E32"/>
    </vehicle>
    <vehicle id="565" depart="169.50">
        <route edges="E56 E52"/>
    </vehicle>
    <vehicle id="568" depart="170.40">
        <route edges="E16 E18"/>
    </vehicle>
    <vehicle id="569" depart="170.70">
        <route edges="E29 E27 E20 E17 E15 E11 E9 E6"/>
    </vehicle>
    <vehicle id="570" depart="171.00">
        <route edges="E44 E46 E38 E37 E35 E30 E29 E27 E20 E17"/>
    </vehicle>
    <vehicle id="573" depart="171.90">
        <route edges="E22 E28 E31 E32 E36 E39"/>
    </vehicle>
    <vehicle id="577" depart="173.10">
        <route edges="E50 E49 E47 E38 E37 E35 E30 E29 E27 E24"/>
    </vehicle>
    <vehicle id="579" depart="173.70">
        <route edges="E46 E48 gneE22 E53"/>
    </vehicle>
    <vehicle id="580" depart="174.00">
        <route edges="E44 E46 E38 E37 E35 E30 E29 E27 E20 E17 E15 E11 E9"/>
    </vehicle>
    <vehicle id="583" depart="174.90">
        <route edges="E28 E31 E32 E36 E39"/>
    </vehicle>
    <vehicle id="584" depart="175.20">
        <route edges="E33 E30 E29 E27 E20 E17 E15 E11 E9 E2 E0"/>
    </vehicle>
    <vehicle id="588" depart="176.40">
        <route edges="E54 E52 E50 E49 E47 E38 E37"/>
    </vehicle>
    <vehicle id="589" depart="176.70">
        <route edges="E8 E10 E12 E16 E18 E19 E21 E28 E31 E32 E36 E39 E41"/>
    </vehicle>
    <vehicle id="593" depart="177.90">
        <route edges="E38 E37 E35 E30 E29 E27 E20 E17 E15"/>
    </vehicle>
    <vehicle id="596" depart="178.80">
        <route edges="E1 E4 E10 E12 E16 E18 E19 E21 E28 E31 E32 E36 E39 E41"/>
    </vehicle>
    <vehicle id="603" depart="180.90">
        <route edges="E37 E35 E30 E29 E27 E20 E17 E15 E11 E9"/>
    </vehicle>
    <vehicle id="604" depart="181.20">
        <route edges="E13 E11 E9 E6"/>
    </vehicle>
    <vehicle id="607" depart="182.10">
        <route edges="E33 E36 E39"/>
    </vehicle>
    <vehicle id="609" depart="182.70">
        <route edges="E12 E16 E18 E19 E21 E28 E31"/>
    </vehicle>
    <vehicle id="610" depart="183.00">
        <route edges="E56 E52 E50 E49 E47 E38 E37 E35 E30"/>
    </vehicle>
    <vehicle id="613" depart="183.90">
        <route edges="E52 E50 E49 E47 E38 E37 E35 E30 E29 E27 E20 E17"/>
    </vehicle>
    <vehicle id="614" depart="184.20">
        <route edges="E28 E31 E32 E36 E39 E48 gneE22"/>
    </vehicle>
    <vehicle id="617" depart="185.10">
        <route edges="E50 E49 E47 E38 E37 E35 E30 E29 E27"/>
    </vehicle>
    <vehicle id="622" depart="186.60">
        <route edges="E4 E10 E12 E16 E18"/>
    </vehicle>
    <vehicle id="623" depart="186.90">
        <route edges="E38 E37 E35 E30 E29 E27 E20 E17 E15 E11 E9 E2 E0"/>
    </vehicle>
    <vehicle id="625" depart="187.50">
        <route edges="E50 E49 E47 E38 E37 E35 E30 E29 E27"/>
    </vehicle>
    <vehicle id="632" depart="189.60">
        <route edges="E49 E47 E41"/>
    </vehicle>
    <vehicle id="634" depart="190.20">
        <route edges="E9 E2"/>
    </vehicle>
    <vehicle id="635" depart="190.50">
        <route edges="E42 E38 E37 E35 E30 E29 E27 E20 E17 E15 E14"/>
    </vehicle>
    <vehicle id="636" depart="190.80">
        <route edges="E46 E38 E37 E35"/>
    </vehicle>
    <vehicle id="638" depart="191.40">
        <route edges="E56 E52 E50 E49 E47 E38 E37 E35 E30 E29 E27 E23"/>
    </vehicle>
    <vehicle id="639" depart="191.70">
        <route edges="E50 E49 E47 E38"/>
    </vehicle>
    <vehicle id="641" depart="192.30">
        <route edges="E49 E47 E41"/>
    </vehicle>
    <vehicle id="655" depart="196.50">
        <route edges="E1 E4 E10 E12 E16"/>
    </vehicle>
    <vehicle id="657" depart="197.10">
        <route edges="E18"/>
    </vehicle>
    <vehicle id="659" depart="197.70">
        <route edges="E19 E21 E28 E31 E32 E36 E39 E48 gneE22 E53 E57 E58"/>
    </vehicle>
    <vehicle id="661" depart="198.30">
        <route edges="E37 E35 E30 E29 E27 E20 E17 E15 E11"/>
    </vehicle>
    <vehicle id="665" depart="199.50">
        <route edges="E22 E28 E31"/>
    </vehicle>
    <vehicle id="667" depart="200.10">
        <route edges="E42"/>
    </vehicle>
    <vehicle id="668" depart="200.40">
        <route edges="E47 E38 E37 E35 E34"/>
    </vehicle>
    <vehicle id="669" depart="200.70">
        <route edges="E37"/>
    </vehicle>
    <vehicle id="671" depart="201.30">
        <route edges="E48 gneE22 E53 E57"/>
    </vehicle>
    <vehicle id="673" depart="201.90">
        <route edges="E56 E52 E50 E49 E47 E38 E37 E35 E30 E29 E27 E23"/>
    </vehicle>
    <vehicle id="677" depart="203.10">
        <route edges="E52 E50 E49 E47 E38 E37 E35 E30 E29 E27 E20 E17 E15 E11 E9 E6"/>
    </vehicle>
    <vehicle id="679" depart="203.70">
        <route edges="E46 E48 gneE22"/>
    </vehicle>
    <vehicle id="680" depart="204.00">
        <route edges="E33 E36 E39 E48 gneE22 E53 E57 E58"/>
    </vehicle>
    <vehicle id="681" depart="204.30">
        <route edges="E5 E10 E12"/>
    </vehicle>
    <vehicle id="682" depart="204.60">
        <route edges="E12 E16 E18 E19 E21 E28 E31 E32 E36 E39 E48 gneE22"/>
    </vehicle>
    <vehicle id="684" depart="205.20">
        <route edges="E44 E46 E38 E37 E35 E30 E29 E27 E24"/>
    </vehicle>
    <vehicle id="685" depart="205.50">
        <route edges="E48"/>
    </vehicle>
    <vehicle id="686" depart="205.80">
        <route edges="E4 E10 E12 E16 E18 E19 E21 E28 E31 E32 E36 E39 E48"/>
    </vehicle>
    <vehicle id="697" depart="209.10">
        <route edges="E40 E42 E38 E37 E35 E30 E29"/>
    </vehicle>
    <vehicle id="699" depart="209.70">