<?xml version="1.0" encoding="UTF-8"?>

<!-- generated on 2021-09-29 19:48:01 by Eclipse SUMO duarouter Version 1.9.2
<configuration xmlns:xsi="http://www.w3.org/2001/XMLSchema-instance" xsi:noNamespaceSchemaLocation="http://sumo.dlr.de/xsd/duarouterConfiguration.xsd">

    <input>
        <net-file value="/home/sonic/Desktop/nets/case06/intersection.net.xml"/>
        <route-files value="trips.trips.xml"/>
    </input>

    <output>
        <output-file value="intersection_random4.rou.xml"/>
        <alternatives-output value="intersection_random4.rou.alt.xml"/>
    </output>

    <time>
        <begin value="0"/>
        <end value="18000.0"/>
    </time>

    <report>
        <no-warnings value="true"/>
        <ignore-errors value="true"/>
        <no-step-log value="true"/>
    </report>

</configuration>
-->

<routes xmlns:xsi="http://www.w3.org/2001/XMLSchema-instance" xsi:noNamespaceSchemaLocation="http://sumo.dlr.de/xsd/routes_file.xsd">
    <vehicle id="0" depart="0.00">
        <route edges="E12 E16 E18 E19 E21 E28 E31 E32 E36 E39 E48"/>
    </vehicle>
    <vehicle id="1" depart="0.30">
        <route edges="E52 E50 E49 E47 E38 E37 E35 E30 E29 E27 E20 E17"/>
    </vehicle>
    <vehicle id="5" depart="1.50">
        <route edges="E26 E25 E28 E31 E32 E36 E39 E48"/>
    </vehicle>
    <vehicle id="6" depart="1.80">
        <route edges="E56 E52 E50 E49 E47 E38 E37 E35 E30 E29 E27 E20 E17 E15 E14"/>
    </vehicle>
    <vehicle id="8" depart="2.40">
        <route edges="E46 E38 E37 E35 E30 E29 E27 E20 E17 E15 E11 E9"/>
    </vehicle>
    <vehicle id="9" depart="2.70">
        <route edges="E13 E11 E9"/>
    </vehicle>
    <vehicle id="14" depart="4.20">
        <route edges="E21 E28 E31 E32 E36 E39 E48 gneE22 E53"/>
    </vehicle>
    <vehicle id="19" depart="5.70">
        <route edges="E49 E47 E38 E37 E35 E30 E29 E27 E20 E17 E15 E14"/>
    </vehicle>
    <vehicle id="21" depart="6.30">
        <route edges="E26 E25 E20"/>
    </vehicle>
    <vehicle id="22" depart="6.60">
        <route edges="E52 E50 E49 E47"/>
    </vehicle>
    <vehicle id="28" depart="8.40">
        <route edges="E32"/>
    </vehicle>
    <vehicle id="29" depart="8.70">
        <route edges="E21 E23"/>
    </vehicle>
    <vehicle id="30" depart="9.00">
        <route edges="E26 E25 E20"/>
    </vehicle>
    <vehicle id="32" depart="9.60">
        <route edges="E25 E28"/>
    </vehicle>
    <vehicle id="33" depart="9.90">
        <route edges="E12 E16 E18 E19 E21 E28 E31 E32 E36 E39 E48 gneE22 E53 E57 E58"/>
    </vehicle>
    <vehicle id="38" depart="11.40">
        <route edges="E35 E30 E29 E27"/>
    </vehicle>
    <vehicle id="39" depart="11.70">
        <route edges="E19 E21 E28"/>
    </vehicle>
    <vehicle id="42" depart="12.60">
        <route edges="E20 E17 E15 E11"/>
    </vehicle>
    <vehicle id="43" depart="12.90">
        <route edges="E46 E48 gneE22"/>
    </vehicle>
    <vehicle id="47" depart="14.10">
        <route edges="E13 E16 E18 E19 E21 E28 E31 E32 E36"/>
    </vehicle>
    <vehicle id="48" depart="14.40">
        <route edges="E54 E52 E50 E49 E47 E38 E37 E35 E30 E29 E27 E20 E17"/>
    </vehicle>
    <vehicle id="49" depart="14.70">
        <route edges="E46 E38 E37 E35 E30 E29"/>
    </vehicle>
    <vehicle id="51" depart="15.30">
        <route edges="E56 E52 E50 E49 E47 E38 E37 E35 E34"/>
    </vehicle>
    <vehicle id="53" depart="15.90">
        <route edges="E54 E57 E58"/>
    </vehicle>
    <vehicle id="56" depart="16.80">
        <route edges="E10 E12 E16 E18 E19 E21 E28 E31 E32 E36 E39 E41"/>
    </vehicle>
    <vehicle id="57" depart="17.10">
        <route edges="E42 E38 E37 E35 E34"/>
    </vehicle>
    <vehicle id="58" depart="17.40">
        <route edges="gneE22 E53 E55"/>
    </vehicle>
    <vehicle id="61" depart="18.30">
        <route edges="E49"/>
    </vehicle>
    <vehicle id="64" depart="19.20">
        <route edges="E29 E27 E20 E17 E15 E11 E9 E7"/>
    </vehicle>
    <vehicle id="66" depart="19.80">
        <route edges="E54 E52 E50 E49 E47 E38 E37 E35 E30 E29 E27 E20 E17 E15 E11 E9 E6"/>
    </vehicle>
    <vehicle id="67" depart="20.10">
        <route edges="E15 E11 E9 E2 E0"/>
    </vehicle>
    <vehicle id="71" depart="21.30">
        <route edges="E31 E32 E36 E39 E45 E43"/>
    </vehicle>
    <vehicle id="76" depart="22.80">
        <route edges="E54 E52 E50 E49 E47 E41"/>
    </vehicle>
    <vehicle id="77" depart="23.10">
        <route edges="E26 E25 E20 E17 E15 E11"/>
    </vehicle>
    <vehicle id="79" depart="23.70">
        <route edges="E28 E31 E32 E36 E39 E41"/>
    </vehicle>
    <vehicle id="80" depart="24.00">
        <route edges="E4 E10 E12 E16 E18 E19 E21 E28 E31"/>
    </vehicle>
    <vehicle id="88" depart="26.40">
        <route edges="E22 E20 E17 E15 E11 E9 E2"/>
    </vehicle>
    <vehicle id="89" depart="26.70">
        <route edges="E21 E28 E31 E32 E36 E39 E45 E43"/>
    </vehicle>
    <vehicle id="90" depart="27.00">
        <route edges="E27 E20 E17 E15 E11 E9"/>
    </vehicle>
    <vehicle id="91" depart="27.30">
        <route edges="E30 E29 E27 E20 E17 E15 E11 E9 E2"/>
    </vehicle>
    <vehicle id="93" depart="27.90">
        <route edges="E13 E16 E18 E19 E21 E28 E31 E32 E36 E39 E48 gneE22"/>
    </vehicle>
    <vehicle id="98" depart="29.40">
        <route edges="E44 E46"/>
    </vehicle>
    <vehicle id="99" depart="29.70">
        <route edges="E13 E11 E9 E2 E0"/>
    </vehicle>
    <vehicle id="102" depart="30.60">
        <route edges="E52 E50 E49 E47 E38"/>
    </vehicle>
    <vehicle id="107" depart="32.10">
        <route edges="E12 E16 E18 E19 E21 E23"/>
    </vehicle>
    <vehicle id="109" depart="32.70">
        <route edges="E19"/>
    </vehicle>
    <vehicle id="115" depart="34.50">
        <route edges="E37 E35 E30 E29 E27 E20 E17 E15 E11 E9"/>
    </vehicle>
    <vehicle id="116" depart="34.80">
        <route edges="E50 E49 E47 E38 E37 E35 E30 E29 E27 E20 E17 E15 E14"/>
    </vehicle>
    <vehicle id="117" depart="35.10">
        <route edges="E9 E7"/>
    </vehicle>
    <vehicle id="120" depart="36.00">
        <route edges="E16 E18 E19 E21 E28"/>
    </vehicle>
    <vehicle id="123" depart="36.90">
        <route edges="E4 E10 E12 E16 E18 E19 E21 E28 E31 E32 E36"/>
    </vehicle>
    <vehicle id="128" depart="38.40">
        <route edges="E49 E47 E38 E37 E35 E30 E29"/>
    </vehicle>
    <vehicle id="130" depart="39.00">
        <route edges="E2"/>
    </vehicle>
    <vehicle id="132" depart="39.60">
        <route edges="E45 E43"/>
    </vehicle>
    <vehicle id="133" depart="39.90">
        <route edges="E46 E38 E37 E35 E30"/>
    </vehicle>
    <vehicle id="134" depart="40.20">
        <route edges="E8 E2 E0"/>
    </vehicle>
    <vehicle id="136" depart="40.80">
        <route edges="E28 E31 E32 E36 E39 E48 gneE22 E53"/>
    </vehicle>
    <vehicle id="141" depart="42.30">
        <route edges="E42 E45"/>
    </vehicle>
    <vehicle id="143" depart="42.90">
        <route edges="E28 E31 E32 E36 E39 E45 E43"/>
    </vehicle>
    <vehicle id="146" depart="43.80">
        <route edges="E56 E52 E50 E49 E47 E45 E43"/>
    </vehicle>
    <vehicle id="147" depart="44.10">
        <route edges="E49 E47 E38 E37 E35"/>
    </vehicle>
    <vehicle id="149" depart="44.70">
        <route edges="E50 E49 E47 E38 E37 E35 E30 E29 E27 E24"/>
    </vehicle>
    <vehicle id="151" depart="45.30">
        <route edges="E52 E50 E49 E47 E38 E37 E35"/>
    </vehicle>
    <vehicle id="153" depart="45.90">
        <route edges="E13 E11"/>
    </vehicle>
    <vehicle id="154" depart="46.20">
        <route edges="E38 E37 E35 E30 E29 E27 E20 E17 E15 E11 E9 E6"/>
    </vehicle>
    <vehicle id="157" depart="47.10">
        <route edges="E26 E25 E28 E31 E32"/>
    </vehicle>
    <vehicle id="158" depart="47.40">
        <route edges="E40 E42 E45 E43"/>
    </vehicle>
    <vehicle id="159" depart="47.70">
        <route edges="E33 E36 E39 E48 gneE22 E53 E57"/>
    </vehicle>
    <vehicle id="162" depart="48.60">
        <route edges="E30 E29 E27 E20 E17 E15 E11 E9 E2"/>
    </vehicle>
    <vehicle id="163" depart="48.90">
        <route edges="E10 E12 E16 E18 E19 E21 E28 E31 E32 E36 E39 E48 gneE22"/>
    </vehicle>
    <vehicle id="164" depart="49.20">
        <route edges="E54 E52 E50 E49 E47 E38 E37 E35 E30 E29 E27 E20 E17 E15 E11 E9 E6"/>
    </vehicle>
    <vehicle id="165" depart="49.50">
        <route edges="E12 E16 E18 E19 E21 E23"/>
    </vehicle>
    <vehicle id="166" depart="49.80">
        <route edges="E10"/>
    </vehicle>
    <vehicle id="167" depart="50.10">
        <route edges="E56 E52 E50 E49 E47 E38"/>
    </vehicle>
    <vehicle id="172" depart="51.60">
        <route edges="E16 E18 E19 E21 E28"/>
    </vehicle>
    <vehicle id="173" depart="51.90">
        <route edges="E8 E10 E12 E16 E18 E19 E21 E28 E31 E32 E36 E39 E48 gneE22"/>
    </vehicle>
    <vehicle id="176" depart="52.80">
        <route edges="E10 E12 E16 E18 E19 E21 E28 E31"/>
    </vehicle>
    <vehicle id="183" depart="54.90">
        <route edges="E1 E4 E10"/>
    </vehicle>
    <vehicle id="185" depart="55.50">
        <route edges="E30 E29 E27 E20 E17 E15 E14"/>
    </vehicle>
    <vehicle id="187" depart="56.10">
        <route edges="E31"/>
    </vehicle>
    <vehicle id="188" depart="56.40">
        <route edges="E22 E20"/>
    </vehicle>
    <vehicle id="189" depart="56.70">
        <route edges="E30 E29 E27 E20 E17"/>
    </vehicle>
    <vehicle id="192" depart="57.60">
        <route edges="E47 E38 E37 E35"/>
    </vehicle>
    <vehicle id="195" depart="58.50">
        <route edges="E13 E16 E18 E19 E21 E28 E31 E32 E36 E39 E48"/>
    </vehicle>
    <vehicle id="198" depart="59.40">
        <route edges="E22 E20 E17"/>
    </vehicle>
    <vehicle id="203" depart="60.90">
        <route edges="E56 E52 E50 E49 E47 E38 E37 E35 E30 E29 E27 E20 E17 E15 E11 E9"/>
    </vehicle>
    <vehicle id="204" depart="61.20">
        <route edges="E30 E29 E27 E20 E17 E15 E11 E9 E6"/>
    </vehicle>
    <vehicle id="205" depart="61.50">
        <route edges="E40 E42 E38 E37 E35 E30 E29 E27 E20 E17 E15 E14"/>
    </vehicle>
    <vehicle id="206" depart="61.80">
        <route edges="E37 E35 E30 E29"/>
    </vehicle>
    <vehicle id="207" depart="62.10">
        <route edges="E35 E30 E29 E27 E23"/>
    </vehicle>
    <vehicle id="210" depart="63.00">
        <route edges="E44 E46 E38 E37 E35 E30 E29 E27 E20 E17 E15 E14"/>
    </vehicle>
    <vehicle id="214" depart="64.20">
        <route edges="E52 E50 E49 E47 E38 E37 E35 E30 E29 E27 E20 E17"/>
    </vehicle>
    <vehicle id="216" depart="64.80">
        <route edges="E33 E36"/>
    </vehicle>
    <vehicle id="217" depart="65.10">
        <route edges="E44 E46 E38"/>
    </vehicle>
    <vehicle id="219" depart="65.70">
        <route edges="E16 E18 E19 E21 E28 E31 E32 E36 E39 E48 gneE22 E53 E55"/>
    </vehicle>
    <vehicle id="222" depart="66.60">
        <route edges="E10 E12 E16 E18 E19 E21 E28 E31 E32"/>
    </vehicle>
    <vehicle id="226" depart="67.80">
        <route edges="E20 E17 E15 E11 E9 E6"/>
    </vehicle>
    <vehicle id="227" depart="68.10">
        <route edges="E18 E19 E21 E28 E31 E32 E36 E39"/>
    </vehicle>
    <vehicle id="228" depart="68.40">
        <route edges="E56 E52 E50 E49 E47 E38 E37 E35 E30 E29 E27 E20 E17 E15 E11 E9 E6"/>
    </vehicle>
    <vehicle id="229" depart="68.70">
        <route edges="E35 E30 E29 E27 E20 E17 E15 E11 E9 E2"/>
    </vehicle>
    <vehicle id="232" depart="69.60">
        <route edges="E28 E31 E32 E36 E39 E48 gneE22 E53 E57"/>
    </vehicle>
    <vehicle id="239" depart="71.70">
        <route edges="E33 E30 E29 E27 E20 E17 E15 E14"/>
    </vehicle>
    <vehicle id="241" depart="72.30">
        <route edges="E49"/>
    </vehicle>
    <vehicle id="247" depart="74.10">
        <route edges="E47 E41"/>
    </vehicle>
    <vehicle id="248" depart="74.40">
        <route edges="E27 E20 E17"/>
    </vehicle>
    <vehicle id="249" depart="74.70">
        <route edges="E11"/>
    </vehicle>
    <vehicle id="251" depart="75.30">
        <route edges="E49 E47 E38 E37 E35 E30 E29 E27 E23"/>
    </vehicle>
    <vehicle id="252" depart="75.60">
        <route edges="E16 E18"/>
    </vehicle>
    <vehicle id="254" depart="76.20">
        <route edges="E10 E12 E16 E18 E19 E21 E28 E31"/>
    </vehicle>
    <vehicle id="258" depart="77.40">
        <route edges="E12 E16 E18 E19 E21 E28 E31 E32 E36 E39 E45 E43"/>
    </vehicle>
    <vehicle id="259" depart="77.70">
        <route edges="E4 E10 E12 E16 E18 E19 E21 E28 E31 E32"/>
    </vehicle>
    <vehicle id="260" depart="78.00">
        <route edges="E21 E28 E31 E32 E36 E39 E48"/>
    </vehicle>
    <vehicle id="262" depart="78.60">
        <route edges="E4 E10 E12 E16 E18 E19 E21 E28 E31 E32"/>
    </vehicle>
    <vehicle id="264" depart="79.20">
        <route edges="E56 E52 E50 E49 E47 E38 E37 E35 E30 E29 E27 E20 E17 E15 E11 E9 E2 E0"/>
    </vehicle>
    <vehicle id="268" depart="80.40">
        <route edges="E40 E42 E48 gneE22 E53 E57 E58"/>
    </vehicle>
    <vehicle id="271" depart="81.30">
        <route edges="E20 E17 E15 E11 E9 E7"/>
    </vehicle>
    <vehicle id="275" depart="82.50">
        <route edges="E13 E16 E18 E19 E21 E28 E31 E32 E36 E39 E48 gneE22 E53"/>
    </vehicle>
    <vehicle id="276" depart="82.80">
        <route edges="E44 E46 E38 E37"/>
    </vehicle>
    <vehicle id="277" depart="83.10">
        <route edges="E18 E19 E21 E28 E31 E32 E36"/>
    </vehicle>
    <vehicle id="278" depart="83.40">
        <route edges="E40 E42 E38 E37 E35 E30 E29 E27 E20 E17 E15 E14"/>
    </vehicle>
    <vehicle id="286" depart="85.80">
        <route edges="E46 E38 E37"/>
    </vehicle>
    <vehicle id="287" depart="86.10">
        <route edges="E50 E49 E47 E38 E37 E35 E30 E29 E27 E20 E17 E15 E11 E9 E6"/>
    </vehicle>
    <vehicle id="290" depart="87.00">
        <route edges="E25 E20 E17"/>
    </vehicle>
    <vehicle id="292" depart="87.60">
        <route edges="E25 E28 E31 E32 E36 E39 E48 gneE22 E53"/>
    </vehicle>
    <vehicle id="294" depart="88.20">
        <route edges="E19 E21 E23"/>
    </vehicle>
    <vehicle id="296" depart="88.80">
        <route edges="gneE22 E53"/>
    </vehicle>
    <vehicle id="297" depart="89.10">
        <route edges="E54 E52 E50 E49 E47 E38 E37 E35 E30"/>
    </vehicle>
    <vehicle id="301" depart="90.30">
        <route edges="E16 E18 E19 E21 E28 E31 E32 E36 E39 E48 gneE22 E53 E55"/>
    </vehicle>
    <vehicle id="302" depart="90.60">
        <route edges="E53 E57 E58"/>
    </vehicle>
    <vehicle id="303" depart="90.90">
        <route edges="E5 E10"/>
    </vehicle>
    <vehicle id="304" depart="91.20">
        <route edges="E49 E47 E38 E37 E35 E30"/>
    </vehicle>
    <vehicle id="310" depart="93.00">
        <route edges="E27"/>
    </vehicle>
    <vehicle id="311" depart="93.30">
        <route edges="E1 E4"/>
    </vehicle>
    <vehicle id="323" depart="96.90">
        <route edges="E38 E37 E35 E30 E29 E27 E20 E17 E15 E11"/>
    </vehicle>
    <vehicle id="326" depart="97.80">
        <route edges="E25 E20 E17 E15 E11"/>
    </vehicle>
    <vehicle id="331" depart="99.30">
        <route edges="E27 E20 E17 E15 E11 E9 E2"/>
    </vehicle>
    <vehicle id="335" depart="100.50">
        <route edges="E16 E18 E19 E21 E28 E31 E32 E36 E39 E48"/>
    </vehicle>
    <vehicle id="339" depart="101.70">
        <route edges="E39 E48 gneE22 E53 E57 E58"/>
    </vehicle>
    <vehicle id="341" depart="102.30">
        <route edges="E56 E52 E50 E49 E47 E45"/>
    </vehicle>
    <vehicle id="344" depart="103.20">
        <route edges="E21 E28 E31 E32 E36 E39 E48 gneE22 E53 E55"/>
    </vehicle>
    <vehicle id="348" depart="104.40">
        <route edges="E20 E17 E15 E11 E9 E2"/>
    </vehicle>
    <vehicle id="349" depart="104.70">
        <route edges="E46 E38 E37 E35 E30 E29 E27 E20 E17 E15 E11 E9 E6"/>
    </vehicle>
    <vehicle id="352" depart="105.60">
        <route edges="E25 E28 E31 E32 E36"/>
    </vehicle>
    <vehicle id="355" depart="106.50">
        <route edges="E20 E17 E15 E11 E9"/>
    </vehicle>
    <vehicle id="357" depart="107.10">
        <route edges="E54 E57"/>
    </vehicle>
    <vehicle id="358" depart="107.40">
        <route edges="E19 E21 E28 E31 E32 E36 E39 E48 gneE22 E53 E57 E58"/>
    </vehicle>
    <vehicle id="361" depart="108.30">
        <route edges="E56 E52 E50 E49 E47 E41"/>
    </vehicle>
    <vehicle id="362" depart="108.60">
        <route edges="E26 E25 E28 E31 E32 E36 E39 E48 gneE22 E53 E55"/>
    </vehicle>
    <vehicle id="363" depart="108.90">
        <route edges="E20 E17 E15"/>
    </vehicle>
    <vehicle id="364" depart="109.20">
        <route edges="E1 E4 E10 E12"/>
    </vehicle>
    <vehicle id="367" depart="110.10">
        <route edges="E42 E38 E37 E35 E30 E29 E27 E20 E17 E15 E11 E9"/>
    </vehicle>
    <vehicle id="368" depart="110.40">
        <route edges="E26 E25 E20 E17 E15 E11 E9 E6"/>
    </vehicle>
    <vehicle id="369" depart="110.70">
        <route edges="E22 E20 E17 E15 E11 E9 E2"/>
    </vehicle>
    <vehicle id="373" depart="111.90">
        <route edges="E56 E52 E50 E49 E47 E38 E37 E35 E30 E29 E27"/>
    </vehicle>
    <vehicle id="376" depart="112.80">
        <route edges="E4 E7"/>
    </vehicle>
    <vehicle id="379" depart="113.70">
        <route edges="E48 gneE22 E53 E55"/>
    </vehicle>
    <vehicle id="382" depart="114.60">
        <route edges="gneE22"/>
    </vehicle>
    <vehicle id="384" depart="115.20">
        <route edges="E1 E4 E10 E12 E16 E18 E19 E21 E28 E31 E32"/>
    </vehicle>
    <vehicle id="385" depart="115.50">
        <route edges="E46 E38 E37"/>
    </vehicle>
    <vehicle id="391" depart="117.30">
        <route edges="E46 E38 E37 E35"/>
    </vehicle>
    <vehicle id="395" depart="118.50">
        <route edges="E31 E32 E36 E39"/>
    </vehicle>
    <vehicle id="396" depart="118.80">
        <route edges="E5 E10 E12 E16 E18 E19 E21 E28 E31 E32 E36 E39 E48 gneE22 E53 E57 E58"/>
    </vehicle>
    <vehicle id="398" depart="119.40">
        <route edges="E26 E25 E20 E17 E15 E11 E9 E7"/>
    </vehicle>
    <vehicle id="406" depart="121.80">
        <route edges="E42 E38 E37 E35 E30 E29 E27 E20 E17 E15 E11 E9 E6"/>
    </vehicle>
    <vehicle id="412" depart="123.60">
        <route edges="E13 E11 E9 E2 E0"/>
    </vehicle>
    <vehicle id="414" depart="124.20">
        <route edges="E44 E46 E38 E37 E35"/>
    </vehicle>
    <vehicle id="416" depart="124.80">
        <route edges="E20 E17 E15 E11 E9"/>
    </vehicle>
    <vehicle id="420" depart="126.00">
        <route edges="E10 E12 E16 E18 E19 E21 E28 E31 E32 E36 E39 E45 E43"/>
    </vehicle>
    <vehicle id="422" depart="126.60">
        <route edges="E16 E18 E19 E21 E28 E31 E32 E36 E39 E45"/>
    </vehicle>
    <vehicle id="423" depart="126.90">
        <route edges="E47 E38"/>
    </vehicle>
    <vehicle id="426" depart="127.80">
        <route edges="E47 E38 E37 E35 E34"/>
    </vehicle>
    <vehicle id="428" depart="128.40">
        <route edges="E56 E52 E50 E49 E47 E38 E37 E35 E30 E29 E27 E20 E17 E15 E11"/>
    </vehicle>
    <vehicle id="431" depart="129.30">
        <route edges="E33 E30 E29 E27"/>
    </vehicle>
    <vehicle id="434" depart="130.20">
        <route edges="E27 E23"/>
    </vehicle>
    <vehicle id="439" depart="131.70">
        <route edges="E13 E16 E18 E19 E21 E28 E31 E32 E36"/>
    </vehicle>
    <vehicle id="446" depart="133.80">
        <route edges="E49 E47 E38 E37 E35 E30 E29 E27 E20 E17 E15 E11"/>
    </vehicle>
    <vehicle id="447" depart="134.10">
        <route edges="E42 E38"/>
    </vehicle>
    <vehicle id="448" depart="134.40">
        <route edges="E40 E42 E38 E37 E35 E30 E29 E27 E20"/>
    </vehicle>
    <vehicle id="451" depart="135.30">
        <route edges="E5 E10 E12"/>
    </vehicle>
    <vehicle id="457" depart="137.10">
        <route edges="E44 E46 E48"/>
    </vehicle>
    <vehicle id="459" depart="137.70">
        <route edges="E57 E58"/>
    </vehicle>
    <vehicle id="461" depart="138.30">
        <route edges="E8 E10 E12 E16 E18 E19 E21 E28 E31 E32 E36 E39 E41"/>
    </vehicle>
    <vehicle id="468" depart="140.40">
        <route edges="E21 E23"/>
    </vehicle>
    <vehicle id="472" depart="141.60">
        <route edges="E10 E12 E16 E18 E19 E21 E28 E31 E32 E36 E39 E48 gneE22 E53 E57"/>
    </vehicle>
    <vehicle id="473" depart="141.90">
        <route edges="E33 E30 E29 E27 E20 E17 E15 E11 E9 E6"/>
    </vehicle>
    <vehicle id="474" depart="142.20">
        <route edges="E12 E16 E18 E19 E21 E28 E31 E32 E36 E39 E45 E43"/>
    </vehicle>
    <vehicle id="477" depart="143.10">
        <route edges="E12 E16 E18 E19 E21 E28 E31 E32 E36 E39 E41"/>
    </vehicle>
    <vehicle id="479" depart="143.70">
        <route edges="E29 E27"/>
    </vehicle>
    <vehicle id="484" depart="145.20">
        <route edges="E40 E42 E38 E37 E35 E30 E29 E27 E20 E17 E15 E11 E9 E7"/>
    </vehicle>
    <vehicle id="487" depart="146.10">
        <route edges="E52 E50 E49 E47 E45 E43"/>
    </vehicle>
    <vehicle id="490" depart="147.00">
        <route edges="E5 E10 E12 E16 E18 E19 E21 E28 E31 E32 E36 E39 E45 E43"/>
    </vehicle>
    <vehicle id="491" depart="147.30">
        <route edges="E52 E50 E49 E47 E38 E37 E35 E30 E29 E27 E20 E17 E15 E11 E9 E2 E0"/>
    </vehicle>
    <vehicle id="495" depart="148.50">
        <route edges="E19 E21 E28 E31 E32 E36 E39 E45 E43"/>
    </vehicle>
    <vehicle id="498" depart="149.40">
        <route edges="E10 E12 E16 E18 E19 E21 E28 E31 E32 E36 E39 E48 gneE22 E53 E57 E58"/>
    </vehicle>
    <vehicle id="499" depart="149.70">
        <route edges="E15 E11 E9 E7"/>
    </vehicle>
    <vehicle id="504" depart="151.20">
        <route edges="E56 E52 E50 E49 E47 E38 E37 E35 E30 E29 E27"/>
    </vehicle>
    <vehicle id="505" depart="151.50">
        <route edges="E44 E46 E48 gneE22"/>
    </vehicle>
    <vehicle id="506" depart="151.80">
        <route edges="E22 E28 E31 E32 E36 E39 E48 gneE22 E53"/>
    </vehicle>
    <vehicle id="510" depart="153.00">
        <route edges="E47 E38 E37 E35"/>
    </vehicle>
    <vehicle id="511" depart="153.30">
        <route edges="E47 E38 E37 E35 E30 E29 E27 E20 E17 E15 E11"/>
    </vehicle>
    <vehicle id="513" depart="153.90">
        <route edges="E13 E16 E18 E19 E21 E23"/>
    </vehicle>
    <vehicle id="515" depart="154.50">
        <route edges="E46 E38 E37 E35 E30"/>
    </vehicle>
    <vehicle id="516" depart="154.80">
        <route edges="E20 E17 E15"/>
    </vehicle>
    <vehicle id="517" depart="155.10">
        <route edges="E12 E16 E18 E19 E21 E28 E31 E32"/>
    </vehicle>
    <vehicle id="518" depart="155.40">
        <route edges="E52 E50 E49 E47 E38 E37 E35 E30 E29 E27"/>
    </vehicle>
    <vehicle id="524" depart="157.20">
        <route edges="E36 E39 E45 E43"/>
    </vehicle>
    <vehicle id="528" depart="158.40">
        <route edges="E45"/>
    </vehicle>
    <vehicle id="529" depart="158.70">
        <route edges="E39"/>
    </vehicle>
    <vehicle id="533" depart="159.90">
        <route edges="E44 E46 E38 E37 E35 E30 E29 E27 E20 E17 E15 E11 E9 E6"/>
    </vehicle>
    <vehicle id="534" depart="160.20">
        <route edges="E26 E25 E20 E17 E15 E11"/>
    </vehicle>
    <vehicle id="536" depart="160.80">
        <route edges="E38 E37 E35 E30 E29 E27 E20 E17 E15 E11 E9"/>
    </vehicle>
    <vehicle id="543" depart="162.90">
        <route edges="E13 E16 E18 E19 E21 E28 E31 E32 E36 E39 E48 gneE22 E53 E57 E58"/>
    </vehicle>
    <vehicle id="544" depart="163.20">
        <route edges="E39 E45"/>
    </vehicle>
    <vehicle id="545" depart="163.50">
        <route edges="E4 E10 E12 E16 E18 E19 E21 E28 E31 E32 E36 E39 E48 gneE22 E53"/>
    </vehicle>
    <vehicle id="546" depart="163.80">
        <route edges="E22 E20 E17 E15 E14"/>
    </vehicle>
    <vehicle id="547" depart="164.10">
        <route edges="E5 E10 E12 E16 E18 E19 E21 E28 E31 E32 E36"/>
    </vehicle>
    <vehicle id="553" depart="165.90">
        <route edges="E46 E38 E37 E35 E30 E29 E27 E20 E17 E15 E14"/>
    </vehicle>
    <vehicle id="554" depart="166.20">
        <route edges="E45"/>
    </vehicle>
    <vehicle id="560" depart="168.00">
        <route edges="E22 E28 E31 E32 E36 E39 E48 gneE22 E53 E57"/>
    </vehicle>
    <vehicle id="570" depart="171.00">
        <route edges="E19 E21 E28 E31 E32 E36 E39 E48 gneE22 E53 E57"/>
    </vehicle>
    <vehicle id="573" depart="171.90">
        <route edges="E5 E10 E12 E16 E18 E19 E21 E28 E31 E32 E36 E39 E48 gneE22 E53 E55"/>
    </vehicle>
    <vehicle id="575" depart="172.50">
        <route edges="E10 E12 E16 E18 E19 E21 E28 E31 E32 E36 E39 E48 gneE22 E53 E57 E58"/>
    </vehicle>
    <vehicle id="578" depart="173.40">
        <route edges="E22 E28"/>
    </vehicle>
    <vehicle id="579" depart="173.70">
        <route edges="E15 E11 E9 E7"/>
    </vehicle>
    <vehicle id="581" depart="174.30">
        <route edges="E25 E28 E31 E32 E36 E39 E48"/>
    </vehicle>
    <vehicle id="583" depart="174.90">
        <route edges="E32 E36 E39 E48 gneE22"/>
    </vehicle>
    <vehicle id="587" depart="176.10">
        <route edges="E13 E16 E18 E19 E21"/>
    </vehicle>
    <vehicle id="588" depart="176.40">
        <route edges="E56 E52 E50 E49 E47 E38 E37 E35 E30 E29 E27 E20 E17 E15 E11 E9 E6"/>
    </vehicle>
    <vehicle id="590" depart="177.00">
        <route edges="E5 E2"/>
    </vehicle>
    <vehicle id="594" depart="178.20">
        <route edges="E33 E30 E29 E27 E20 E17 E15 E11 E9 E6"/>
    </vehicle>
    <vehicle id="602" depart="180.60">
        <route edges="E10 E12 E16 E18 E19 E21 E28 E31 E32 E36 E39 E48 gneE22"/>
    </vehicle>
    <vehicle id="603" depart="180.90">
        <route edges="E39 E48"/>
    </vehicle>
    <vehicle id="605" depart="181.50">
        <route edges="E26 E25 E20 E17 E15"/>
    </vehicle>
    <vehicle id="608" depart="182.40">
        <route edges="E8 E10 E12 E16 E18 E19 E21 E28 E31 E32 E34"/>
    </vehicle>
    <vehicle id="614" depart="184.20">
        <route edges="E17 E15 E11 E9 E2"/>
    </vehicle>
    <vehicle id="616" depart="184.80">
        <route edges="E1 E4"/>
    </vehicle>
    <vehicle id="617" depart="185.10">
        <route edges="E40 E42 E38 E37 E35"/>
    </vehicle>
    <vehicle id="618" depart="185.40">
        <route edges="E22 E28 E31 E32 E36 E39 E48 gneE22 E53"/>
    </vehicle>
    <vehicle id="619" depart="185.70">
        <route edges="E30 E29 E27 E20 E17 E15 E11 E9 E6"/>
    </vehicle>
    <vehicle id="623" depart="186.90">
        <route edges="E53 E57 E58"/>
    </vehicle>
    <vehicle id="626" depart="187.80">
        <route edges="E44 E46 E48 gneE22 E53 E57"/>
    </vehicle>
    <vehicle id="627" depart="188.10">
        <route edges="E42 E38 E37 E35 E30 E29 E27 E20 E17 E15 E11 E9"/>
    </vehicle>
    <vehicle id="630" depart="189.00">
        <route edges="E42 E45 E43"/>
    </vehicle>
    <vehicle id="631" depart="189.30">
        <route edges="E56 E52 E50 E49 E47 E45 E43"/>
    </vehicle>
    <vehicle id="633" depart="189.90">
        <route edges="E37 E35 E30 E29 E27 E20 E17 E15 E11"/>
    </vehicle>
    <vehicle id="640" depart="192.00">
        <route edges="E50 E49 E47 E38 E37 E35 E30 E29"/>
    </vehicle>
    <vehicle id="642" depart="192.60">
        <route edges="E4"/>
    </vehicle>
    <vehicle id="645" depart="193.50">
        <route edges="E18 E19 E21 E28 E31 E32 E36 E39 E45"/>
    </vehicle>
    <vehicle id="651" depart="195.30">
        <route edges="E19 E21 E28 E31"/>
    </vehicle>
    <vehicle id="653" depart="195.90">
        <route edges="E47 E38 E37 E35 E30 E29 E27 E20 E17 E15 E14"/>
    </vehicle>
    <vehicle id="655" depart="196.50">
        <route edges="E39 E48 gneE22 E53 E57 E58"/>
    </vehicle>
    <vehicle id="659" depart="197.70">
        <route edges="E33 E30 E29 E27 E20 E17 E15"/>
    </vehicle>
    <vehicle id="660" depart="198.00">
        <route edges="E47 E45"/>
    </vehicle>
    <vehicle id="661" depart="198.30">
        <route edges="E56 E52 E50 E49 E47 E38 E37 E35 E30 E29 E27 E20 E17 E15 E11 E9 E2 E0"/>
    </vehicle>
    <vehicle id="666" depart="199.80">
        <route edges="E22 E28 E31 E32"/>
    </vehicle>
    <vehicle id="674" depart="202.20">
        <route edges="E26 E25 E20 E17 E15"/>
    </vehicle>
    <vehicle id="675" depart="202.50">
        <route edges="E40 E42 E48"/>
    </vehicle>
    <vehicle id="676" depart="202.80">
        <route edges="E49 E47 E38 E37 E35 E30 E29 E27 E20 E17 E15 E11 E9 E2 E0"/>
    </vehicle>
    <vehicle id="677" depart="203.10">
        <route edges="E56 E52"/>
    </vehicle>
    <vehicle id="681" depart="204.30">
        <route edges="E13 E16 E18 E19 E21 E28 E31 E32 E36 E39"/>
    </vehicle>
    <vehicle id="687" depart="206.10">
        <route edges="E39 E48 gneE22 E53 E57 E58"/>
    </vehicle>
    <vehicle id="690" depart="207.00">
        <route edges="E56 E52 E50 E49 E47"/>
    </vehicle>
    <vehicle id="691" depart="207.30">
        <route edges="E29 E27 E20 E17 E15 E11 E9 E7"/>
    </vehicle>
    <vehicle id="695" depart="208.50">
        <route edges="E46 E48 gneE22 E53 E55"/>
    </vehicle>
    <vehicle id="698" depart="209.40">
        <route edges="E5 E2 E0"/>
    </vehicle>
    <vehicle id="699" depart="209.70">
        <route edges="E35 E30 E29 E27 E24"/>
    </vehicle>
    <vehicle id="700" depart="210.00">
        <route edges="E13 E16 E18 E19 E21 E28 E31 E32 E36 E39 E48 gneE22 E53"/>
    </vehicle>
    <vehicle id="703" depart="210.90">
        <route edges="E32 E36 E39 E45"/>
    </vehicle>
    <vehicle id="708" depart="212.40">
        <route edges="E38 E37 E35 E30 E29 E27 E24"/>
    </vehicle>
    <vehicle id="712" depart="213.60">
        <route edges="E16 E18 E19 E21 E23"/>
    </vehicle>
    <vehicle id="713" depart="213.90">
        <route edges="E5 E2 E0"/>
    </vehicle>
    <vehicle id="717" depart="215.10">
        <route edges="E17 E15 E11"/>