<?xml version="1.0" encoding="UTF-8"?>

<!-- generated on 2021-09-29 19:48:57 by Eclipse SUMO duarouter Version 1.9.2
<configuration xmlns:xsi="http://www.w3.org/2001/XMLSchema-instance" xsi:noNamespaceSchemaLocation="http://sumo.dlr.de/xsd/duarouterConfiguration.xsd">

    <input>
        <net-file value="/home/sonic/Desktop/nets/case06/intersection.net.xml"/>
        <route-files value="trips.trips.xml"/>
    </input>

    <output>
        <output-file value="intersection_random32.rou.xml"/>
        <alternatives-output value="intersection_random32.rou.alt.xml"/>
    </output>

    <time>
        <begin value="0"/>
        <end value="18000.0"/>
    </time>

    <report>
        <no-warnings value="true"/>
        <ignore-errors value="true"/>
        <no-step-log value="true"/>
    </report>

</configuration>
-->

<routes xmlns:xsi="http://www.w3.org/2001/XMLSchema-instance" xsi:noNamespaceSchemaLocation="http://sumo.dlr.de/xsd/routes_file.xsd">
    <vehicle id="2" depart="0.60">
        <route edges="E1 E4 E10 E12 E16 E18 E19 E21 E28 E31 E32 E36 E39 E48 gneE22 E53 E55"/>
    </vehicle>
    <vehicle id="3" depart="0.90">
        <route edges="E1 E4 E10 E12 E16 E18 E19 E21 E28 E31 E32 E36 E39 E48 gneE22 E53 E57 E58"/>
    </vehicle>
    <vehicle id="5" depart="1.50">
        <route edges="E9"/>
    </vehicle>
    <vehicle id="6" depart="1.80">
        <route edges="E33 E30"/>
    </vehicle>
    <vehicle id="7" depart="2.10">
        <route edges="E47 E38 E37 E35 E30 E29 E27 E20 E17 E15 E11"/>
    </vehicle>
    <vehicle id="8" depart="2.40">
        <route edges="E46 E38 E37 E35 E30 E29"/>
    </vehicle>
    <vehicle id="11" depart="3.30">
        <route edges="E25 E28 E31 E32"/>
    </vehicle>
    <vehicle id="14" depart="4.20">
        <route edges="E26 E25 E28 E31 E32 E36 E39 E48 gneE22 E53 E57 E58"/>
    </vehicle>
    <vehicle id="18" depart="5.40">
        <route edges="E54 E52 E50 E49 E47 E38 E37 E35 E30 E29 E27 E20 E17"/>
    </vehicle>
    <vehicle id="19" depart="5.70">
        <route edges="E9 E6"/>
    </vehicle>
    <vehicle id="20" depart="6.00">
        <route edges="E40 E42 E38"/>
    </vehicle>
    <vehicle id="21" depart="6.30">
        <route edges="E40 E42 E45"/>
    </vehicle>
    <vehicle id="22" depart="6.60">
        <route edges="E50 E49 E47 E38"/>
    </vehicle>
    <vehicle id="23" depart="6.90">
        <route edges="E50 E49 E47 E41"/>
    </vehicle>
    <vehicle id="27" depart="8.10">
        <route edges="E33 E36 E39 E48 gneE22 E53 E57 E58"/>
    </vehicle>
    <vehicle id="28" depart="8.40">
        <route edges="E47 E38 E37 E35 E30 E29"/>
    </vehicle>
    <vehicle id="32" depart="9.60">
        <route edges="E1 E4 E10 E12 E16 E18 E19 E21 E28 E31"/>
    </vehicle>
    <vehicle id="36" depart="10.80">
        <route edges="E40 E42 E38 E37 E35 E30"/>
    </vehicle>
    <vehicle id="37" depart="11.10">
        <route edges="E1 E4 E10"/>
    </vehicle>
    <vehicle id="38" depart="11.40">
        <route edges="E49 E47 E38 E37 E35 E30 E29 E27 E20 E17 E15"/>
    </vehicle>
    <vehicle id="39" depart="11.70">
        <route edges="E13 E11 E9 E7"/>
    </vehicle>
    <vehicle id="40" depart="12.00">
        <route edges="E22 E20 E17 E15 E11 E9 E2 E0"/>
    </vehicle>
    <vehicle id="42" depart="12.60">
        <route edges="E9 E7"/>
    </vehicle>
    <vehicle id="47" depart="14.10">
        <route edges="E49 E47 E38 E37 E35 E30 E29 E27"/>
    </vehicle>
    <vehicle id="48" depart="14.40">
        <route edges="E56 E52 E50 E49 E47"/>
    </vehicle>
    <vehicle id="54" depart="16.20">
        <route edges="E50 E49 E47 E38 E37"/>
    </vehicle>
    <vehicle id="60" depart="18.00">
        <route edges="E9 E2 E0"/>
    </vehicle>
    <vehicle id="64" depart="19.20">
        <route edges="E26 E25 E28 E31 E32 E36 E39 E48 gneE22"/>
    </vehicle>
    <vehicle id="66" depart="19.80">
        <route edges="E39"/>
    </vehicle>
    <vehicle id="67" depart="20.10">
        <route edges="E47 E41"/>
    </vehicle>
    <vehicle id="69" depart="20.70">
        <route edges="E29 E27 E20 E17 E15 E11 E9 E2"/>
    </vehicle>
    <vehicle id="78" depart="23.40">
        <route edges="E13 E16 E18 E19 E21 E28 E31 E32 E34"/>
    </vehicle>
    <vehicle id="80" depart="24.00">
        <route edges="E12"/>
    </vehicle>
    <vehicle id="82" depart="24.60">
        <route edges="E32 E36 E39 E48 gneE22 E53 E55"/>
    </vehicle>
    <vehicle id="84" depart="25.20">
        <route edges="E31 E32 E36 E39 E48 gneE22 E53"/>
    </vehicle>
    <vehicle id="85" depart="25.50">
        <route edges="E20 E17 E15"/>
    </vehicle>
    <vehicle id="88" depart="26.40">
        <route edges="E35 E30 E29 E27 E20"/>
    </vehicle>
    <vehicle id="89" depart="26.70">
        <route edges="E21 E28 E31 E32 E36 E39 E48 gneE22 E53"/>
    </vehicle>
    <vehicle id="90" depart="27.00">
        <route edges="E20 E17"/>
    </vehicle>
    <vehicle id="94" depart="28.20">
        <route edges="E44 E46 E48"/>
    </vehicle>
    <vehicle id="95" depart="28.50">
        <route edges="E25 E20 E17 E15 E11 E9 E2 E0"/>
    </vehicle>
    <vehicle id="96" depart="28.80">
        <route edges="E40 E42 E38 E37 E35 E30"/>
    </vehicle>
    <vehicle id="99" depart="29.70">
        <route edges="E47 E38 E37 E35 E30 E29 E27 E23"/>
    </vehicle>
    <vehicle id="100" depart="30.00">
        <route edges="E18 E19 E21 E28 E31 E32 E36 E39"/>
    </vehicle>
    <vehicle id="103" depart="30.90">
        <route edges="E4 E10 E12 E16 E18 E19 E21 E28 E31 E32 E36 E39 E48 gneE22 E53 E57"/>
    </vehicle>
    <vehicle id="106" depart="31.80">
        <route edges="E30 E29 E27 E20 E17 E15 E11 E9 E2 E0"/>
    </vehicle>
    <vehicle id="111" depart="33.30">
        <route edges="E44 E46 E38 E37 E35 E30 E29 E27 E20 E17 E15 E11 E9 E6"/>
    </vehicle>
    <vehicle id="113" depart="33.90">
        <route edges="E35 E34"/>
    </vehicle>
    <vehicle id="115" depart="34.50">
        <route edges="E21 E24"/>
    </vehicle>
    <vehicle id="121" depart="36.30">
        <route edges="E30 E29 E27 E20 E17 E15 E11 E9 E2 E0"/>
    </vehicle>
    <vehicle id="124" depart="37.20">
        <route edges="E33 E36 E39 E48 gneE22 E53 E55"/>
    </vehicle>
    <vehicle id="125" depart="37.50">
        <route edges="E38 E37 E35 E34"/>
    </vehicle>
    <vehicle id="127" depart="38.10">
        <route edges="E19 E21 E28 E31 E32 E34"/>
    </vehicle>
    <vehicle id="128" depart="38.40">
        <route edges="E40 E42 E38 E37 E35 E30 E29 E27 E20 E17 E15 E11 E9 E2"/>
    </vehicle>
    <vehicle id="132" depart="39.60">
        <route edges="E56 E52 E50 E49 E47 E38 E37 E35 E30 E29 E27 E20 E17 E15 E14"/>
    </vehicle>
    <vehicle id="135" depart="40.50">
        <route edges="E54 E52 E50 E49 E47 E38 E37 E35 E30 E29 E27 E24"/>
    </vehicle>
    <vehicle id="138" depart="41.40">
        <route edges="E38 E37 E35 E30 E29 E27 E20 E17 E15 E11 E9"/>
    </vehicle>
    <vehicle id="141" depart="42.30">
        <route edges="E13 E16 E18 E19 E21 E28 E31 E32 E34"/>
    </vehicle>
    <vehicle id="143" depart="42.90">
        <route edges="E4 E10 E12 E16 E18 E19 E21 E28 E31 E32 E36 E39 E45 E43"/>
    </vehicle>
    <vehicle id="147" depart="44.10">
        <route edges="E8 E10 E12 E16 E18 E19 E21 E28 E31 E32 E36 E39 E48 gneE22 E53 E55"/>
    </vehicle>
    <vehicle id="148" depart="44.40">
        <route edges="E46 E38 E37 E35 E30 E29 E27 E20 E17 E15 E11 E9 E2 E0"/>
    </vehicle>
    <vehicle id="149" depart="44.70">
        <route edges="E50 E49 E47 E38 E37 E35 E30 E29 E27 E20 E17 E15 E11 E9 E7"/>
    </vehicle>
    <vehicle id="150" depart="45.00">
        <route edges="E19 E21 E28 E31 E32 E36 E39 E48 gneE22 E53"/>
    </vehicle>
    <vehicle id="152" depart="45.60">
        <route edges="E4 E10 E12 E16 E18 E19 E21 E28 E31 E32 E36 E39 E48 gneE22 E53"/>
    </vehicle>
    <vehicle id="153" depart="45.90">
        <route edges="E30 E29"/>
    </vehicle>
    <vehicle id="154" depart="46.20">
        <route edges="E25 E28 E31 E32 E36 E39"/>
    </vehicle>
    <vehicle id="155" depart="46.50">
        <route edges="E22 E20"/>
    </vehicle>
    <vehicle id="157" depart="47.10">
        <route edges="E29 E27 E20 E17 E15 E11"/>
    </vehicle>
    <vehicle id="166" depart="49.80">
        <route edges="E54 E52 E50 E49 E47 E38 E37 E35 E30 E29 E27 E20 E17 E15"/>
    </vehicle>
    <vehicle id="167" depart="50.10">
        <route edges="E22 E28 E31 E32 E36 E39 E48 gneE22 E53 E57 E58"/>
    </vehicle>
    <vehicle id="168" depart="50.40">
        <route edges="E29 E27 E20 E17 E15 E11 E9 E6"/>
    </vehicle>
    <vehicle id="169" depart="50.70">
        <route edges="E33 E36 E39 E48 gneE22 E53 E57 E58"/>
    </vehicle>
    <vehicle id="170" depart="51.00">
        <route edges="E52 E50 E49 E47 E38 E37"/>
    </vehicle>
    <vehicle id="175" depart="52.50">
        <route edges="E4 E10 E12"/>
    </vehicle>
    <vehicle id="176" depart="52.80">
        <route edges="E26 E25 E20 E17 E15 E11 E9 E2"/>
    </vehicle>
    <vehicle id="180" depart="54.00">
        <route edges="E31 E32 E36 E39 E45"/>
    </vehicle>
    <vehicle id="188" depart="56.40">
        <route edges="E1 E4 E10 E12 E16 E18 E19 E21 E23"/>
    </vehicle>
    <vehicle id="191" depart="57.30">
        <route edges="E47 E45 E43"/>
    </vehicle>
    <vehicle id="192" depart="57.60">
        <route edges="E19 E21 E28 E31 E32 E36"/>
    </vehicle>
    <vehicle id="194" depart="58.20">
        <route edges="E36 E39 E48 gneE22 E53 E57 E58"/>
    </vehicle>
    <vehicle id="203" depart="60.90">
        <route edges="E29 E27"/>
    </vehicle>
    <vehicle id="205" depart="61.50">
        <route edges="E33 E30 E29 E27 E20"/>
    </vehicle>
    <vehicle id="206" depart="61.80">
        <route edges="E49 E47 E38 E37 E35 E30 E29 E27"/>
    </vehicle>
    <vehicle id="207" depart="62.10">
        <route edges="E35"/>
    </vehicle>
    <vehicle id="215" depart="64.50">
        <route edges="E16 E18 E19 E21 E28 E31 E32 E36 E39 E45 E43"/>
    </vehicle>
    <vehicle id="221" depart="66.30">
        <route edges="E49 E47 E38 E37 E35 E30 E29 E27 E20 E17 E15 E11 E9 E7"/>
    </vehicle>
    <vehicle id="228" depart="68.40">
        <route edges="E44 E46 E48 gneE22 E53 E57 E58"/>
    </vehicle>
    <vehicle id="230" depart="69.00">
        <route edges="E30 E29 E27 E20 E17 E15 E14"/>
    </vehicle>
    <vehicle id="232" depart="69.60">
        <route edges="E56 E52 E50 E49 E47 E45"/>
    </vehicle>
    <vehicle id="235" depart="70.50">
        <route edges="E37 E35 E30 E29 E27 E20 E17 E15 E11 E9 E2 E0"/>
    </vehicle>
    <vehicle id="241" depart="72.30">
        <route edges="E52 E50"/>
    </vehicle>
    <vehicle id="242" depart="72.60">
        <route edges="E1 E4 E10 E12 E16 E18 E19 E21"/>
    </vehicle>
    <vehicle id="243" depart="72.90">
        <route edges="E20 E17 E15 E11"/>
    </vehicle>
    <vehicle id="244" depart="73.20">
        <route edges="E42 E48"/>
    </vehicle>
    <vehicle id="249" depart="74.70">
        <route edges="E8 E10 E12 E16 E18 E19 E21 E28 E31 E32 E36 E39 E45 E43"/>
    </vehicle>
    <vehicle id="251" depart="75.30">
        <route edges="E39"/>
    </vehicle>
    <vehicle id="252" depart="75.60">
        <route edges="E4 E10 E12 E16 E18 E19 E21 E28 E31 E32 E36 E39 E48 gneE22 E53 E57 E58"/>
    </vehicle>
    <vehicle id="253" depart="75.90">
        <route edges="E22 E28 E31 E32 E36 E39"/>
    </vehicle>
    <vehicle id="256" depart="76.80">
        <route edges="gneE22"/>
    </vehicle>
    <vehicle id="257" depart="77.10">
        <route edges="E54 E52 E50 E49 E47 E38 E37 E35 E30 E29 E27 E20 E17 E15 E11 E9 E2"/>
    </vehicle>
    <vehicle id="258" depart="77.40">
        <route edges="E49 E47 E38 E37 E35 E30 E29 E27 E20 E17 E15 E11 E9 E6"/>
    </vehicle>
    <vehicle id="259" depart="77.70">
        <route edges="E21 E28 E31 E32 E36 E39 E48 gneE22 E53 E55"/>
    </vehicle>
    <vehicle id="262" depart="78.60">
        <route edges="E50 E49 E47 E38 E37 E35 E30"/>
    </vehicle>
    <vehicle id="264" depart="79.20">
        <route edges="E21 E28 E31 E32 E36 E39 E41"/>
    </vehicle>
    <vehicle id="266" depart="79.80">
        <route edges="E19 E21"/>
    </vehicle>
    <vehicle id="267" depart="80.10">
        <route edges="E31 E32 E36 E39 E48 gneE22 E53 E57 E58"/>
    </vehicle>
    <vehicle id="268" depart="80.40">
        <route edges="E10 E12 E16 E18 E19 E21 E28 E31 E32 E36 E39 E48 gneE22 E53 E55"/>
    </vehicle>
    <vehicle id="269" depart="80.70">
        <route edges="E54 E52 E50 E49 E47 E38 E37 E35 E30 E29 E27"/>
    </vehicle>
    <vehicle id="271" depart="81.30">
        <route edges="E26 E25 E20 E17 E15 E11"/>
    </vehicle>
    <vehicle id="272" depart="81.60">
        <route edges="E40 E42 E38 E37 E35 E30 E29 E27 E20 E17 E15"/>
    </vehicle>
    <vehicle id="273" depart="81.90">
        <route edges="E1 E4 E10 E12"/>
    </vehicle>
    <vehicle id="276" depart="82.80">
        <route edges="E12 E16 E18 E19 E21"/>
    </vehicle>
    <vehicle id="277" depart="83.10">
        <route edges="E5 E10 E12 E16 E18 E19 E21 E28 E31 E32 E36 E39 E45 E43"/>
    </vehicle>
    <vehicle id="279" depart="83.70">
        <route edges="E27 E20 E17 E15 E14"/>
    </vehicle>
    <vehicle id="282" depart="84.60">
        <route edges="E35 E30 E29 E27 E20 E17 E15 E11 E9 E7"/>
    </vehicle>
    <vehicle id="283" depart="84.90">
        <route edges="E21 E28 E31 E32 E36 E39 E45 E43"/>
    </vehicle>
    <vehicle id="288" depart="86.40">
        <route edges="E48 gneE22 E53 E57 E58"/>
    </vehicle>
    <vehicle id="289" depart="86.70">
        <route edges="E37 E35"/>
    </vehicle>
    <vehicle id="290" depart="87.00">
        <route edges="E54 E52 E50 E49 E47 E45 E43"/>
    </vehicle>
    <vehicle id="292" depart="87.60">
        <route edges="E1 E4 E6"/>
    </vehicle>
    <vehicle id="294" depart="88.20">
        <route edges="E10 E12 E16 E18 E19 E21 E28"/>
    </vehicle>
    <vehicle id="301" depart="90.30">
        <route edges="E5 E10 E12 E16 E18 E19 E21 E28 E31 E32 E36 E39 E48 gneE22 E53 E55"/>
    </vehicle>
    <vehicle id="302" depart="90.60">
        <route edges="E22 E20 E17 E15 E14"/>
    </vehicle>
    <vehicle id="303" depart="90.90">
        <route edges="E26 E25"/>
    </vehicle>
    <vehicle id="304" depart="91.20">
        <route edges="E52 E50 E49 E47 E38 E37 E35 E30 E29 E27 E20 E17 E15 E11 E9 E2 E0"/>
    </vehicle>
    <vehicle id="306" depart="91.80">
        <route edges="E18 E19 E21 E28 E31 E32"/>
    </vehicle>
    <vehicle id="309" depart="92.70">
        <route edges="E9 E7"/>
    </vehicle>
    <vehicle id="313" depart="93.90">
        <route edges="E10 E12 E16 E18 E19 E21 E23"/>
    </vehicle>
    <vehicle id="314" depart="94.20">
        <route edges="E22 E20 E17 E15 E11 E9 E2 E0"/>
    </vehicle>
    <vehicle id="317" depart="95.10">
        <route edges="E50 E49 E47 E38 E37 E35 E30 E29 E27 E20 E17"/>
    </vehicle>
    <vehicle id="319" depart="95.70">
        <route edges="E56 E52 E50 E49 E47 E38 E37 E35 E30"/>
    </vehicle>
    <vehicle id="322" depart="96.60">
        <route edges="E5 E10"/>
    </vehicle>
    <vehicle id="326" depart="97.80">
        <route edges="E22 E28 E31 E32 E36"/>
    </vehicle>
    <vehicle id="327" depart="98.10">
        <route edges="E18 E19 E21 E28 E31 E32 E36 E39 E48 gneE22 E53"/>
    </vehicle>
    <vehicle id="328" depart="98.40">
        <route edges="E19 E21 E28 E31"/>
    </vehicle>
    <vehicle id="330" depart="99.00">
        <route edges="E46 E38 E37 E35 E30 E29 E27 E20 E17 E15"/>
    </vehicle>
    <vehicle id="332" depart="99.60">
        <route edges="E5 E2"/>
    </vehicle>
    <vehicle id="334" depart="100.20">
        <route edges="E37 E35 E30 E29 E27 E20 E17 E15 E14"/>
    </vehicle>
    <vehicle id="337" depart="101.10">
        <route edges="E44 E46 E38 E37"/>
    </vehicle>
    <vehicle id="340" depart="102.00">
        <route edges="E13 E16"/>
    </vehicle>
    <vehicle id="345" depart="103.50">
        <route edges="E38 E37 E35 E30 E29 E27 E20 E17 E15 E11 E9 E2 E0"/>
    </vehicle>
    <vehicle id="346" depart="103.80">
        <route edges="E47 E38 E37 E35 E30 E29 E27 E20 E17 E15 E11"/>
    </vehicle>
    <vehicle id="347" depart="104.10">
        <route edges="E29 E27 E20 E17"/>
    </vehicle>
    <vehicle id="348" depart="104.40">
        <route edges="E56 E52 E50 E49 E47 E38 E37 E35 E30 E29 E27 E23"/>
    </vehicle>
    <vehicle id="349" depart="104.70">
        <route edges="E52 E50 E49 E47 E38 E37 E35 E30 E29 E27 E20 E17 E15"/>
    </vehicle>
    <vehicle id="354" depart="106.20">
        <route edges="E20 E17 E15"/>
    </vehicle>
    <vehicle id="355" depart="106.50">
        <route edges="E13 E16 E18 E19 E21"/>
    </vehicle>
    <vehicle id="359" depart="107.70">
        <route edges="E33 E36 E39 E48 gneE22 E53"/>
    </vehicle>
    <vehicle id="360" depart="108.00">
        <route edges="E33 E30 E29 E27 E24"/>
    </vehicle>
    <vehicle id="362" depart="108.60">
        <route edges="E47 E38 E37 E35 E30 E29 E27 E20 E17"/>
    </vehicle>
    <vehicle id="364" depart="109.20">
        <route edges="E52 E50 E49 E47 E45 E43"/>
    </vehicle>
    <vehicle id="366" depart="109.80">
        <route edges="E11 E9"/>
    </vehicle>
    <vehicle id="370" depart="111.00">
        <route edges="E4 E10 E12 E16 E18 E19 E21 E28 E31 E32 E36 E39 E48"/>
    </vehicle>
    <vehicle id="371" depart="111.30">
        <route edges="E44 E46 E48"/>
    </vehicle>
    <vehicle id="374" depart="112.20">
        <route edges="E25 E28 E31 E32 E36 E39 E48 gneE22"/>
    </vehicle>
    <vehicle id="376" depart="112.80">
        <route edges="E44 E46 E38 E37 E35 E30 E29 E27 E23"/>
    </vehicle>
    <vehicle id="379" depart="113.70">
        <route edges="gneE22 E53 E57"/>
    </vehicle>
    <vehicle id="380" depart="114.00">
        <route edges="E5 E10 E12 E16 E18 E19 E21 E28 E31 E32 E36 E39 E45 E43"/>
    </vehicle>
    <vehicle id="381" depart="114.30">
        <route edges="E33 E30 E29 E27"/>
    </vehicle>
    <vehicle id="382" depart="114.60">
        <route edges="E38 E37 E35 E30 E29 E27 E20 E17"/>
    </vehicle>
    <vehicle id="383" depart="114.90">
        <route edges="E54 E52 E50 E49 E47 E38 E37 E35 E30 E29 E27 E20 E17 E15 E11 E9 E7"/>
    </vehicle>
    <vehicle id="385" depart="115.50">
        <route edges="E8 E10 E12 E16 E18 E19 E21 E28 E31 E32 E36 E39 E45"/>
    </vehicle>
    <vehicle id="386" depart="115.80">
        <route edges="E10"/>
    </vehicle>
    <vehicle id="387" depart="116.10">
        <route edges="E10"/>
    </vehicle>
    <vehicle id="388" depart="116.40">
        <route edges="E1 E4 E10 E12 E16 E18 E19 E21 E28 E31 E32 E36 E39 E45"/>
    </vehicle>
    <vehicle id="394" depart="118.20">
        <route edges="E26 E25 E28 E31 E32 E36 E39 E48 gneE22 E53 E57"/>
    </vehicle>
    <vehicle id="397" depart="119.10">
        <route edges="E47 E38 E37 E35 E30 E29 E27 E20 E17 E15 E11 E9 E6"/>
    </vehicle>
    <vehicle id="399" depart="119.70">
        <route edges="E1 E4 E10 E12 E16 E18 E19"/>
    </vehicle>
    <vehicle id="400" depart="120.00">
        <route edges="E28 E31 E32 E36 E39 E48 gneE22 E53 E57 E58"/>
    </vehicle>
    <vehicle id="401" depart="120.30">
        <route edges="gneE22 E53 E55"/>
    </vehicle>
    <vehicle id="404" depart="121.20">
        <route edges="E50 E49 E47 E38 E37 E35 E30 E29 E27 E20"/>
    </vehicle>
    <vehicle id="407" depart="122.10">
        <route edges="E18 E19 E21 E28 E31 E32 E36 E39 E48 gneE22 E53 E57 E58"/>
    </vehicle>
    <vehicle id="409" depart="122.70">
        <route edges="E18 E19 E21 E28 E31 E32 E36 E39"/>
    </vehicle>
    <vehicle id="415" depart="124.50">
        <route edges="E54 E52 E50 E49 E47 E45 E43"/>
    </vehicle>
    <vehicle id="417" depart="125.10">
        <route edges="E26 E25 E28"/>
    </vehicle>
    <vehicle id="421" depart="126.30">
        <route edges="E47 E38"/>
    </vehicle>
    <vehicle id="439" depart="131.70">
        <route edges="E35 E30 E29 E27 E20 E17 E15"/>
    </vehicle>
    <vehicle id="440" depart="132.00">
        <route edges="E49 E47 E38 E37 E35 E30 E29 E27 E20 E17 E15 E11 E9 E2 E0"/>
    </vehicle>
    <vehicle id="443" depart="132.90">
        <route edges="E1 E4 E7"/>
    </vehicle>
    <vehicle id="444" depart="133.20">
        <route edges="E22 E28 E31 E32 E36 E39 E48 gneE22 E53"/>
    </vehicle>
    <vehicle id="446" depart="133.80">
        <route edges="E19 E21"/>
    </vehicle>
    <vehicle id="447" depart="134.10">
        <route edges="E30 E29 E27 E20"/>
    </vehicle>
    <vehicle id="449" depart="134.70">
        <route edges="E52 E50 E49 E47 E45 E43"/>
    </vehicle>
    <vehicle id="452" depart="135.60">
        <route edges="E18 E19 E21 E28 E31 E32 E36 E39 E48 gneE22 E53"/>
    </vehicle>
    <vehicle id="453" depart="135.90">
        <route edges="E42 E38 E37 E35 E30 E29 E27 E20 E17 E15 E11 E9 E6"/>
    </vehicle>
    <vehicle id="456" depart="136.80">
        <route edges="E56 E52 E50 E49"/>
    </vehicle>
    <vehicle id="457" depart="137.10">
        <route edges="E25 E20 E17"/>
    </vehicle>
    <vehicle id="462" depart="138.60">
        <route edges="E33 E36 E39 E45"/>
    </vehicle>
    <vehicle id="463" depart="138.90">
        <route edges="E37 E35 E30 E29 E27 E20 E17 E15 E11"/>
    </vehicle>
    <vehicle id="466" depart="139.80">
        <route edges="E31 E32 E36 E39 E48 gneE22 E53 E57 E58"/>
    </vehicle>
    <vehicle id="467" depart="140.10">
        <route edges="E22 E20 E17 E15"/>
    </vehicle>
    <vehicle id="468" depart="140.40">
        <route edges="E50 E49 E47 E38 E37 E35 E30 E29 E27 E20 E17 E15 E11 E9 E6"/>
    </vehicle>
    <vehicle id="469" depart="140.70">
        <route edges="E31 E32 E36 E39 E48 gneE22 E53 E57"/>
    </vehicle>
    <vehicle id="476" depart="142.80">
        <route edges="E54 E52 E50 E49 E47 E38"/>
    </vehicle>
    <vehicle id="477" depart="143.10">
        <route edges="E42 E38 E37 E35 E30"/>
    </vehicle>
    <vehicle id="478" depart="143.40">
        <route edges="E8 E10 E12 E16 E18 E19 E21 E28 E31 E32 E36"/>
    </vehicle>
    <vehicle id="486" depart="145.80">
        <route edges="E30 E29"/>
    </vehicle>
    <vehicle id="488" depart="146.40">
        <route edges="E35 E30 E29 E27 E20"/>
    </vehicle>
    <vehicle id="489" depart="146.70">
        <route edges="E2"/>
    </vehicle>
    <vehicle id="492" depart="147.60">
        <route edges="E33 E30 E29 E27 E20 E17"/>
    </vehicle>
    <vehicle id="495" depart="148.50">
        <route edges="E36 E39 E48 gneE22 E53 E57 E58"/>
    </vehicle>
    <vehicle id="496" depart="148.80">
        <route edges="E33 E36 E39"/>
    </vehicle>
    <vehicle id="498" depart="149.40">
        <route edges="E38 E37 E35 E30 E29 E27 E20 E17"/>
    </vehicle>
    <vehicle id="499" depart="149.70">
        <route edges="E26 E25 E28 E31"/>
    </vehicle>
    <vehicle id="500" depart="150.00">
        <route edges="E47 E38 E37 E35 E30 E29 E27 E20 E17 E15 E11"/>
    </vehicle>
    <vehicle id="501" depart="150.30">
        <route edges="E42 E45 E43"/>
    </vehicle>
    <vehicle id="503" depart="150.90">
        <route edges="E50 E49 E47 E38 E37 E35 E30 E29 E27 E20 E17 E15 E11 E9 E6"/>
    </vehicle>
    <vehicle id="504" depart="151.20">
        <route edges="E42"/>
    </vehicle>
    <vehicle id="507" depart="152.10">
        <route edges="E46 E38 E37 E35 E30 E29 E27 E20 E17 E15 E14"/>
    </vehicle>
    <vehicle id="508" depart="152.40">
        <route edges="E50 E49"/>
    </vehicle>
    <vehicle id="513" depart="153.90">
        <route edges="E28 E31 E32 E36 E39 E45"/>
    </vehicle>
    <vehicle id="514" depart="154.20">
        <route edges="E52 E50 E49 E47 E38 E37 E35 E30 E29 E27 E20 E17 E15 E11 E9 E2 E0"/>
    </vehicle>
    <vehicle id="518" depart="155.40">
        <route edges="E25 E28 E31 E32 E36 E39 E41"/>
    </vehicle>
    <vehicle id="520" depart="156.00">
        <route edges="E22 E20 E17 E15 E11 E9 E6"/>
    </vehicle>
    <vehicle id="521" depart="156.30">
        <route edges="E5 E10 E12 E16 E18 E19 E21 E28 E31 E32 E36 E39 E48 gneE22"/>
    </vehicle>
    <vehicle id="524" depart="157.20">
        <route edges="E8 E10 E12"/>
    </vehicle>
    <vehicle id="525" depart="157.50">
        <route edges="E26 E25 E20 E17 E15 E11 E9 E6"/>
    </vehicle>
    <vehicle id="527" depart="158.10">
        <route edges="E31 E32 E36 E39 E48 gneE22"/>
    </vehicle>
    <vehicle id="528" depart="158.40">
        <route edges="E49 E47 E41"/>
    </vehicle>
    <vehicle id="530" depart="159.00">
        <route edges="E1 E4 E10 E12 E16 E18 E19 E21"/>
    </vehicle>
    <vehicle id="531" depart="159.30">
        <route edges="E39"/>
    </vehicle>
    <vehicle id="532" depart="159.60">
        <route edges="E22 E28 E31 E32 E36 E39 E45 E43"/>
    </vehicle>
    <vehicle id="533" depart="159.90">
        <route edges="E4 E10 E12"/>
    </vehicle>
    <vehicle id="534" depart="160.20">
        <route edges="E49 E47 E38 E37 E35 E30 E29 E27 E20 E17 E15 E11 E9 E2 E0"/>
    </vehicle>
    <vehicle id="535" depart="160.50">
        <route edges="E31 E32"/>
    </vehicle>
    <vehicle id="536" depart="160.80">
        <route edges="E56 E52 E50 E49 E47 E38 E37 E35 E30"/>
    </vehicle>
    <vehicle id="538" depart="161.40">
        <route edges="E16 E18 E19 E21 E24"/>
    </vehicle>
    <vehicle id="541" depart="162.30">
        <route edges="E22 E28 E31 E32 E36 E39 E45 E43"/>
    </vehicle>
    <vehicle id="543" depart="162.90">
        <route edges="E8 E10 E12 E16 E18 E19 E21 E28 E31 E32 E36 E39 E48 gneE22"/>
    </vehicle>
    <vehicle id="545" depart="163.50">
        <route edges="E42 E45 E43"/>
    </vehicle>
    <vehicle id="547" depart="164.10">
        <route edges="E56 E52 E50 E49 E47 E38"/>
    </vehicle>
    <vehicle id="551" depart="165.30">
        <route edges="E42 E38 E37 E35 E30"/>
    </vehicle>
    <vehicle id="552" depart="165.60">
        <route edges="E56 E52 E50 E49 E47 E38"/>
    </vehicle>
    <vehicle id="554" depart="166.20">
        <route edges="E33 E30 E29 E27 E20"/>
    </vehicle>
    <vehicle id="558" depart="167.40">
        <route edges="E26 E25 E28 E31 E32 E36 E39 E45"/>
    </vehicle>
    <vehicle id="563" depart="168.90">
        <route edges="E19 E21 E28 E31 E32 E36 E39 E48 gneE22 E53 E57 E58"/>
    </vehicle>
    <vehicle id="564" depart="169.20">
        <route edges="E54 E52 E50 E49 E47 E38 E37 E35 E30 E29 E27 E23"/>
    </vehicle>
    <vehicle id="567" depart="170.10">
        <route edges="E52 E50 E49 E47 E45 E43"/>
    </vehicle>
    <vehicle id="572" depart="171.60">
        <route edges="E5 E10 E12 E16 E18 E19 E21 E28 E31"/>
    </vehicle>
    <vehicle id="575" depart="172.50">
        <route edges="E47 E38 E37 E35 E30 E29 E27 E20 E17 E15 E11 E9"/>
    </vehicle>
    <vehicle id="579" depart="173.70">
        <route edges="E29 E27 E23"/>
    </vehicle>
    <vehicle id="582" depart="174.60">
        <route edges="E40 E42 E48 gneE22 E53"/>
    </vehicle>
    <vehicle id="587" depart="176.10">
        <route edges="E8 E10"/>
    </vehicle>
    <vehicle id="589" depart="176.70">
        <route edges="E22 E28 E31"/>
    </vehicle>
    <vehicle id="592" depart="177.60">
        <route edges="E33 E30 E29 E27 E20 E17 E15 E11 E9 E7"/>
    </vehicle>
    <vehicle id="593" depart="177.90">
        <route edges="E28 E31 E32"/>
    </vehicle>
    <vehicle id="594" depart="178.20">
        <route edges="E22 E28 E31 E32 E36 E39 E48"/>
    </vehicle>
    <vehicle id="595" depart="178.50">
        <route edges="E33 E36 E39 E48 gneE22 E53 E55"/>
    </vehicle>
    <vehicle id="599" depart="179.70">
        <route edges="E12 E14"/>
    </vehicle>
    <vehicle id="605" depart="181.50">
        <route edges="E18 E19 E21 E28 E31 E32 E34"/>
    </vehicle>
    <vehicle id="608" depart="182.40">
        <route edges="E16 E18 E19 E21 E28 E31 E32 E36 E39 E45 E43"/>
    </vehicle>
    <vehicle id="609" depart="182.70">
        <route edges="E18 E19 E21 E28 E31 E32 E36 E39 E48 gneE22 E53 E57"/>
    </vehicle>
    <vehicle id="611" depart="183.30">
        <route edges="E52 E50 E49 E47 E38 E37 E35 E30"/>
    </vehicle>
    <vehicle id="612" depart="183.60">
        <route edges="E8 E10 E12 E16 E18 E19 E21 E28 E31 E32 E36 E39 E45 E43"/>
    </vehicle>
    <vehicle id="615" depart="184.50">
        <route edges="E37 E35 E30 E29 E27"/>
    </vehicle>
    <vehicle id="616" depart="184.80">
        <route edges="E37 E35 E30 E29 E27 E20 E17"/>
    </vehicle>
    <vehicle id="618" depart="185.40">
        <route edges="E49 E47 E38 E37 E35 E30 E29 E27 E20 E17"/>
    </vehicle>
    <vehicle id="619" depart="185.70">
        <route edges="E26 E25 E20 E17 E15 E11 E9 E6"/>
    </vehicle>
    <vehicle id="621" depart="186.30">
        <route edges="E18 E19 E21 E28 E31 E32 E36 E39"/>
    </vehicle>
    <vehicle id="623" depart="186.90">
        <route edges="E5 E10 E12 E16 E18 E19 E21 E28"/>
    </vehicle>
    <vehicle id="626" depart="187.80">
        <route edges="E38 E37 E35 E30 E29 E27 E20 E17 E15 E14"/>
    </vehicle>
    <vehicle id="627" depart="188.10">
        <route edges="E19 E21 E28 E31 E32 E36 E39 E48"/>
    </vehicle>
    <vehicle id="633" depart="189.90">
        <route edges="E33 E30 E29"/>
    </vehicle>
    <vehicle id="635" depart="190.50">
        <route edges="E5 E10 E12 E16 E18"/>
    </vehicle>
    <vehicle id="636" depart="190.80">
        <route edges="E37 E35 E30"/>
    </vehicle>
    <vehicle id="637" depart="191.10">
        <route edges="E22 E20 E17"/>
    </vehicle>
    <vehicle id="638" depart="191.40">
        <route edges="E46 E38 E37 E35 E34"/>
    </vehicle>
    <vehicle id="642" depart="192.60">
        <route edges="E22 E20 E17 E15 E11 E9 E2 E0"/>
    </vehicle>
    <vehicle id="643" depart="192.90">
        <route edges="E40 E42 E38"/>
    </vehicle>
    <vehicle id="653" depart="195.90">
        <route edges="E19"/>
    </vehicle>
    <vehicle id="654" depart="196.20">