<?xml version="1.0" encoding="UTF-8"?>

<!-- generated on 2021-09-29 19:49:11 by Eclipse SUMO duarouter Version 1.9.2
<configuration xmlns:xsi="http://www.w3.org/2001/XMLSchema-instance" xsi:noNamespaceSchemaLocation="http://sumo.dlr.de/xsd/duarouterConfiguration.xsd">

    <input>
        <net-file value="/home/sonic/Desktop/nets/case06/intersection.net.xml"/>
        <route-files value="trips.trips.xml"/>
    </input>

    <output>
        <output-file value="intersection_random39.rou.xml"/>
        <alternatives-output value="intersection_random39.rou.alt.xml"/>
    </output>

    <time>
        <begin value="0"/>
        <end value="18000.0"/>
    </time>

    <report>
        <no-warnings value="true"/>
        <ignore-errors value="true"/>
        <no-step-log value="true"/>
    </report>

</configuration>
-->

<routes xmlns:xsi="http://www.w3.org/2001/XMLSchema-instance" xsi:noNamespaceSchemaLocation="http://sumo.dlr.de/xsd/routes_file.xsd">
    <vehicle id="0" depart="0.00">
        <route edges="E31 E32 E36 E39 E45 E43"/>
    </vehicle>
    <vehicle id="2" depart="0.80">
        <route edges="E9 E2 E0"/>
    </vehicle>
    <vehicle id="5" depart="2.00">
        <route edges="E56 E55"/>
    </vehicle>
    <vehicle id="6" depart="2.40">
        <route edges="E26 E25 E28"/>
    </vehicle>
    <vehicle id="7" depart="2.80">
        <route edges="E49 E47 E38 E37 E35 E30 E29 E27 E20"/>
    </vehicle>
    <vehicle id="8" depart="3.20">
        <route edges="E13 E16 E18 E19 E21 E28 E31 E32 E36 E39 E48 gneE22 E53 E55"/>
    </vehicle>
    <vehicle id="10" depart="4.00">
        <route edges="E48 gneE22 E53 E57"/>
    </vehicle>
    <vehicle id="12" depart="4.80">
        <route edges="E42 E38 E37 E35 E30 E29 E27 E20 E17 E15 E11 E9 E6"/>
    </vehicle>
    <vehicle id="13" depart="5.20">
        <route edges="E33 E30"/>
    </vehicle>
    <vehicle id="14" depart="5.60">
        <route edges="E32 E36 E39 E41"/>
    </vehicle>
    <vehicle id="15" depart="6.00">
        <route edges="E13 E16 E18 E19 E21 E24"/>
    </vehicle>
    <vehicle id="16" depart="6.40">
        <route edges="E1 E4"/>
    </vehicle>
    <vehicle id="18" depart="7.20">
        <route edges="E49 E47 E38 E37 E35 E30 E29 E27 E20 E17"/>
    </vehicle>
    <vehicle id="21" depart="8.40">
        <route edges="E50 E49 E47 E38 E37 E35 E30"/>
    </vehicle>
    <vehicle id="23" depart="9.20">
        <route edges="E37 E35 E30 E29"/>
    </vehicle>
    <vehicle id="26" depart="10.40">
        <route edges="E13 E16 E18 E19 E21 E28 E31 E32 E36 E39 E45"/>
    </vehicle>
    <vehicle id="27" depart="10.80">
        <route edges="E38 E37 E35 E30 E29 E27 E24"/>
    </vehicle>
    <vehicle id="30" depart="12.00">
        <route edges="E50 E49 E47 E41"/>
    </vehicle>
    <vehicle id="32" depart="12.80">
        <route edges="E18 E19 E21 E28 E31 E32"/>
    </vehicle>
    <vehicle id="35" depart="14.00">
        <route edges="E13 E16 E18 E19 E21 E28 E31 E32 E36 E39"/>
    </vehicle>
    <vehicle id="40" depart="16.00">
        <route edges="E49 E47 E38 E37 E35 E30 E29 E27 E20 E17 E15"/>
    </vehicle>
    <vehicle id="41" depart="16.40">
        <route edges="E13 E16 E18 E19 E21 E28 E31"/>
    </vehicle>
    <vehicle id="44" depart="17.60">
        <route edges="E5 E10 E12 E16 E18 E19 E21 E28 E31 E32 E36 E39 E48 gneE22"/>
    </vehicle>
    <vehicle id="45" depart="18.00">
        <route edges="E18 E19 E21 E28 E31 E32"/>
    </vehicle>
    <vehicle id="48" depart="19.20">
        <route edges="E56 E52 E50 E49 E47 E38 E37 E35 E30 E29 E27 E20 E17 E15 E14"/>
    </vehicle>
    <vehicle id="49" depart="19.60">
        <route edges="E40 E42 E48 gneE22 E53"/>
    </vehicle>
    <vehicle id="50" depart="20.00">
        <route edges="E4 E10 E12 E16 E18 E19 E21 E28 E31 E32 E36 E39 E48 gneE22 E53 E55"/>
    </vehicle>
    <vehicle id="56" depart="22.40">
        <route edges="E52 E50 E49 E47 E38 E37 E35 E30 E29 E27 E20 E17 E15 E11 E9"/>
    </vehicle>
    <vehicle id="58" depart="23.20">
        <route edges="E38 E37 E35 E30 E29 E27 E20 E17 E15 E11 E9 E6"/>
    </vehicle>
    <vehicle id="61" depart="24.40">
        <route edges="E11 E9 E6"/>
    </vehicle>
    <vehicle id="62" depart="24.80">
        <route edges="E42 E45"/>
    </vehicle>
    <vehicle id="63" depart="25.20">
        <route edges="E18 E19 E21 E28 E31 E32 E36 E39 E48 gneE22 E53"/>
    </vehicle>
    <vehicle id="64" depart="25.60">
        <route edges="E5 E10 E12 E16 E18 E19 E21 E28 E31 E32 E36 E39 E48 gneE22"/>
    </vehicle>
    <vehicle id="65" depart="26.00">
        <route edges="E4 E10 E12 E16 E18 E19 E21 E28 E31"/>
    </vehicle>
    <vehicle id="68" depart="27.20">
        <route edges="E50 E49 E47 E45"/>
    </vehicle>
    <vehicle id="72" depart="28.80">
        <route edges="gneE22 E53"/>
    </vehicle>
    <vehicle id="73" depart="29.20">
        <route edges="E33 E36 E39 E45"/>
    </vehicle>
    <vehicle id="74" depart="29.60">
        <route edges="E22 E28 E31 E32 E36 E39 E48 gneE22"/>
    </vehicle>
    <vehicle id="75" depart="30.00">
        <route edges="E50 E49 E47 E38 E37 E35 E30 E29 E27 E20 E17 E15 E14"/>
    </vehicle>
    <vehicle id="78" depart="31.20">
        <route edges="E38 E37 E35 E30 E29 E27 E20 E17 E15 E11 E9 E7"/>
    </vehicle>
    <vehicle id="81" depart="32.40">
        <route edges="E19 E21 E28 E31 E32 E36 E39 E48 gneE22"/>
    </vehicle>
    <vehicle id="82" depart="32.80">
        <route edges="E26 E25 E20 E17 E15 E14"/>
    </vehicle>
    <vehicle id="83" depart="33.20">
        <route edges="E46"/>
    </vehicle>
    <vehicle id="85" depart="34.00">
        <route edges="E28 E31 E32"/>
    </vehicle>
    <vehicle id="88" depart="35.20">
        <route edges="E37 E35 E30 E29 E27 E20 E17 E15 E11 E9 E2"/>
    </vehicle>
    <vehicle id="89" depart="35.60">
        <route edges="E53 E55"/>
    </vehicle>
    <vehicle id="91" depart="36.40">
        <route edges="E13 E16 E18 E19 E21 E28 E31 E32 E36"/>
    </vehicle>
    <vehicle id="94" depart="37.60">
        <route edges="E22 E28 E31 E32 E36 E39 E45 E43"/>
    </vehicle>
    <vehicle id="95" depart="38.00">
        <route edges="E37 E35 E30 E29 E27 E20 E17 E15"/>
    </vehicle>
    <vehicle id="97" depart="38.80">
        <route edges="E36"/>
    </vehicle>
    <vehicle id="100" depart="40.00">
        <route edges="E54 E52 E50 E49 E47 E38 E37 E35 E30 E29 E27 E20 E17 E15 E14"/>
    </vehicle>
    <vehicle id="105" depart="42.00">
        <route edges="E56 E52 E50 E49 E47 E38 E37 E35 E30 E29 E27 E24"/>
    </vehicle>
    <vehicle id="107" depart="42.80">
        <route edges="E10 E12 E16 E18 E19 E21 E28 E31 E32 E36 E39 E48 gneE22"/>
    </vehicle>
    <vehicle id="108" depart="43.20">
        <route edges="E19 E21 E28 E31 E32 E36 E39 E45"/>
    </vehicle>
    <vehicle id="112" depart="44.80">
        <route edges="E50 E49 E47 E38 E37 E35 E30 E29 E27 E23"/>
    </vehicle>
    <vehicle id="113" depart="45.20">
        <route edges="E15 E11 E9 E6"/>
    </vehicle>
    <vehicle id="123" depart="49.20">
        <route edges="E38 E37 E35 E34"/>
    </vehicle>
    <vehicle id="124" depart="49.60">
        <route edges="E38 E37 E35 E30 E29 E27 E20 E17 E15 E11 E9 E2 E0"/>
    </vehicle>
    <vehicle id="128" depart="51.20">
        <route edges="E40 E42 E38 E37 E35 E30 E29 E27"/>
    </vehicle>
    <vehicle id="130" depart="52.00">
        <route edges="E26 E25 E28 E31 E32"/>
    </vehicle>
    <vehicle id="131" depart="52.40">
        <route edges="E50"/>
    </vehicle>
    <vehicle id="132" depart="52.80">
        <route edges="E1 E4 E10 E12"/>
    </vehicle>
    <vehicle id="134" depart="53.60">
        <route edges="E37 E35 E30 E29 E27 E20 E17 E15 E11 E9 E7"/>
    </vehicle>
    <vehicle id="138" depart="55.20">
        <route edges="E38 E37 E35 E30 E29 E27 E20 E17 E15 E11 E9 E2"/>
    </vehicle>
    <vehicle id="139" depart="55.60">
        <route edges="E46 E38 E37 E35 E30 E29 E27 E20 E17 E15 E11 E9 E2"/>
    </vehicle>
    <vehicle id="140" depart="56.00">
        <route edges="E18 E19 E21 E28 E31 E32 E36 E39 E48 gneE22 E53 E57"/>
    </vehicle>
    <vehicle id="141" depart="56.40">
        <route edges="E39 E48 gneE22 E53 E55"/>
    </vehicle>
    <vehicle id="150" depart="60.00">
        <route edges="E10 E12 E16 E18 E19 E21 E28 E31 E32 E36 E39 E48 gneE22 E53 E55"/>
    </vehicle>
    <vehicle id="151" depart="60.40">
        <route edges="E39 E48 gneE22 E53"/>
    </vehicle>
    <vehicle id="152" depart="60.80">
        <route edges="E32 E36 E39 E48 gneE22"/>
    </vehicle>
    <vehicle id="160" depart="64.00">
        <route edges="E8 E10 E12 E16 E18 E19 E21 E28 E31 E32 E36 E39 E48 gneE22 E53 E57"/>
    </vehicle>
    <vehicle id="163" depart="65.20">
        <route edges="E40 E42 E38"/>
    </vehicle>
    <vehicle id="164" depart="65.60">
        <route edges="E8 E10 E12 E16 E18 E19 E21 E28 E31 E32"/>
    </vehicle>
    <vehicle id="165" depart="66.00">
        <route edges="E22 E28"/>
    </vehicle>
    <vehicle id="169" depart="67.60">
        <route edges="E1 E4 E10 E12 E16 E18 E19 E21 E28 E31 E32 E36 E39 E48 gneE22"/>
    </vehicle>
    <vehicle id="170" depart="68.00">
        <route edges="E33 E30 E29 E27 E23"/>
    </vehicle>
    <vehicle id="173" depart="69.20">
        <route edges="E36 E39 E48 gneE22 E53"/>
    </vehicle>
    <vehicle id="179" depart="71.60">
        <route edges="E33 E30 E29 E27 E20 E17 E15 E11"/>
    </vehicle>
    <vehicle id="180" depart="72.00">
        <route edges="E52 E50 E49 E47 E38"/>
    </vehicle>
    <vehicle id="184" depart="73.60">
        <route edges="E47 E38 E37 E35 E30 E29 E27 E23"/>
    </vehicle>
    <vehicle id="186" depart="74.40">
        <route edges="E45 E43"/>
    </vehicle>
    <vehicle id="188" depart="75.20">
        <route edges="E37 E35 E30 E29 E27 E20 E17 E15 E11 E9 E7"/>
    </vehicle>
    <vehicle id="191" depart="76.40">
        <route edges="E33 E30 E29 E27 E20 E17 E15 E11 E9 E7"/>
    </vehicle>
    <vehicle id="194" depart="77.60">
        <route edges="E5 E10 E12 E16 E18 E19 E21 E28 E31 E32 E36 E39 E41"/>
    </vehicle>
    <vehicle id="198" depart="79.20">
        <route edges="E49 E47 E45"/>
    </vehicle>
    <vehicle id="201" depart="80.40">
        <route edges="E32"/>
    </vehicle>
    <vehicle id="204" depart="81.60">
        <route edges="E20 E17 E15 E11 E9 E6"/>
    </vehicle>
    <vehicle id="207" depart="82.80">
        <route edges="E50 E49 E47 E41"/>
    </vehicle>
    <vehicle id="212" depart="84.80">
        <route edges="E49 E47 E38 E37 E35 E30 E29 E27 E20 E17 E15 E11 E9 E7"/>
    </vehicle>
    <vehicle id="213" depart="85.20">
        <route edges="E13 E16 E18 E19 E21 E24"/>
    </vehicle>
    <vehicle id="215" depart="86.00">
        <route edges="E27 E20 E17"/>
    </vehicle>
    <vehicle id="218" depart="87.20">
        <route edges="E40 E42 E38 E37 E35"/>
    </vehicle>
    <vehicle id="219" depart="87.60">
        <route edges="E10 E12 E16 E18 E19 E21"/>
    </vehicle>
    <vehicle id="221" depart="88.40">
        <route edges="E19 E21 E28 E31 E32 E36 E39 E48 gneE22 E53 E57"/>
    </vehicle>
    <vehicle id="223" depart="89.20">
        <route edges="E46 E48 gneE22 E53 E57"/>
    </vehicle>
    <vehicle id="226" depart="90.40">
        <route edges="E13 E11 E9 E2 E0"/>
    </vehicle>
    <vehicle id="227" depart="90.80">
        <route edges="E12 E16 E18 E19 E21 E28 E31 E32 E36 E39 E48 gneE22 E53"/>
    </vehicle>
    <vehicle id="229" depart="91.60">
        <route edges="E35 E30 E29 E27 E20 E17 E15"/>
    </vehicle>
    <vehicle id="231" depart="92.40">
        <route edges="E13 E16 E18 E19 E21 E28 E31 E32"/>
    </vehicle>
    <vehicle id="233" depart="93.20">
        <route edges="E8 E10"/>
    </vehicle>
    <vehicle id="235" depart="94.00">
        <route edges="E47 E38 E37 E35 E30 E29 E27"/>
    </vehicle>
    <vehicle id="236" depart="94.40">
        <route edges="E46 E38 E37 E35 E30 E29 E27 E20 E17 E15 E11 E9 E2 E0"/>
    </vehicle>
    <vehicle id="239" depart="95.60">
        <route edges="E21 E24"/>
    </vehicle>
    <vehicle id="241" depart="96.40">
        <route edges="E42 E38 E37 E35 E34"/>
    </vehicle>
    <vehicle id="244" depart="97.60">
        <route edges="E37 E35 E34"/>
    </vehicle>
    <vehicle id="247" depart="98.80">
        <route edges="E30 E29 E27 E20 E17 E15 E11 E9 E7"/>
    </vehicle>
    <vehicle id="249" depart="99.60">
        <route edges="E1 E4 E10 E12 E16 E18 E19 E21 E28 E31 E32 E36 E39 E48 gneE22 E53 E57"/>
    </vehicle>
    <vehicle id="250" depart="100.00">
        <route edges="E28 E31 E32 E36 E39 E48 gneE22 E53 E57 E58"/>
    </vehicle>
    <vehicle id="254" depart="101.60">
        <route edges="E22 E28 E31 E32"/>
    </vehicle>
    <vehicle id="255" depart="102.00">
        <route edges="E22 E28 E31 E32 E36 E39 E45"/>
    </vehicle>
    <vehicle id="256" depart="102.40">
        <route edges="E19 E21"/>
    </vehicle>
    <vehicle id="257" depart="102.80">
        <route edges="E12 E16 E18 E19 E21"/>
    </vehicle>
    <vehicle id="261" depart="104.40">
        <route edges="E22 E28"/>
    </vehicle>
    <vehicle id="268" depart="107.20">
        <route edges="E44 E46 E38 E37 E35 E30 E29 E27 E20 E17 E15 E11 E9 E6"/>
    </vehicle>
    <vehicle id="273" depart="109.20">
        <route edges="E44 E46 E38 E37 E35 E30 E29 E27 E20 E17 E15 E14"/>
    </vehicle>
    <vehicle id="274" depart="109.60">
        <route edges="E38 E37 E35 E30 E29 E27 E20 E17 E15 E11 E9 E2 E0"/>
    </vehicle>
    <vehicle id="275" depart="110.00">
        <route edges="E46 E38 E37 E35 E30 E29 E27 E20 E17"/>
    </vehicle>
    <vehicle id="278" depart="111.20">
        <route edges="E33 E36 E39 E45"/>
    </vehicle>
    <vehicle id="280" depart="112.00">
        <route edges="E8 E10 E12 E16 E18 E19 E21 E28"/>
    </vehicle>
    <vehicle id="282" depart="112.80">
        <route edges="E36 E39 E45"/>
    </vehicle>
    <vehicle id="283" depart="113.20">
        <route edges="E21 E28 E31 E32 E36 E39 E45 E43"/>
    </vehicle>
    <vehicle id="290" depart="116.00">
        <route edges="E53"/>
    </vehicle>
    <vehicle id="291" depart="116.40">
        <route edges="E56 E52 E50 E49 E47 E38 E37 E35 E30 E29 E27 E20 E17 E15 E11 E9 E6"/>
    </vehicle>
    <vehicle id="296" depart="118.40">
        <route edges="E33 E30 E29 E27 E20 E17 E15 E11 E9 E2"/>
    </vehicle>
    <vehicle id="298" depart="119.20">
        <route edges="E40 E42 E38 E37 E35 E30 E29 E27 E20 E17 E15 E11 E9"/>
    </vehicle>
    <vehicle id="302" depart="120.80">
        <route edges="E56 E52 E50 E49"/>
    </vehicle>
    <vehicle id="303" depart="121.20">
        <route edges="E42 E48 gneE22 E53 E55"/>
    </vehicle>
    <vehicle id="304" depart="121.60">
        <route edges="E10 E12 E16 E18 E19 E21 E28 E31 E32 E36 E39 E48 gneE22 E53"/>
    </vehicle>
    <vehicle id="305" depart="122.00">
        <route edges="E13 E16 E18 E19 E21 E28 E31 E32 E36 E39 E48"/>
    </vehicle>
    <vehicle id="306" depart="122.40">
        <route edges="E56 E52 E50 E49 E47 E38"/>
    </vehicle>
    <vehicle id="309" depart="123.60">
        <route edges="E52 E50 E49 E47 E38 E37 E35 E30 E29 E27 E20"/>
    </vehicle>
    <vehicle id="314" depart="125.60">
        <route edges="E54 E52 E50 E49 E47 E38 E37 E35 E30 E29 E27 E20 E17 E15 E11"/>
    </vehicle>
    <vehicle id="315" depart="126.00">
        <route edges="E40 E42 E45"/>
    </vehicle>
    <vehicle id="318" depart="127.20">
        <route edges="E42 E48 gneE22 E53 E57"/>
    </vehicle>
    <vehicle id="319" depart="127.60">
        <route edges="E42 E48 gneE22 E53 E57"/>
    </vehicle>
    <vehicle id="320" depart="128.00">
        <route edges="E40 E42 E38"/>
    </vehicle>
    <vehicle id="323" depart="129.20">
        <route edges="E44 E46 E38 E37 E35 E30 E29 E27 E20 E17 E15 E14"/>
    </vehicle>
    <vehicle id="325" depart="130.00">
        <route edges="E19 E21 E28 E31 E32 E36 E39"/>
    </vehicle>
    <vehicle id="332" depart="132.80">
        <route edges="E4 E10 E12 E16 E18 E19 E21 E23"/>
    </vehicle>
    <vehicle id="333" depart="133.20">
        <route edges="E40 E42 E38 E37 E35 E30 E29 E27 E20 E17"/>
    </vehicle>
    <vehicle id="336" depart="134.40">
        <route edges="E33 E36 E39 E48 gneE22"/>
    </vehicle>
    <vehicle id="337" depart="134.80">
        <route edges="E4 E10 E12 E16 E18 E19 E21 E28"/>
    </vehicle>
    <vehicle id="338" depart="135.20">
        <route edges="E54 E52 E50 E49 E47 E38 E37 E35 E30"/>
    </vehicle>
    <vehicle id="339" depart="135.60">
        <route edges="E44 E46 E38 E37 E35 E30 E29 E27 E24"/>
    </vehicle>
    <vehicle id="340" depart="136.00">
        <route edges="E38 E37 E35 E34"/>
    </vehicle>
    <vehicle id="351" depart="140.40">
        <route edges="E54 E52 E50 E49 E47 E38 E37 E35 E30 E29 E27 E20 E17"/>
    </vehicle>
    <vehicle id="352" depart="140.80">
        <route edges="E50 E49"/>
    </vehicle>
    <vehicle id="353" depart="141.20">
        <route edges="E12 E16 E18 E19 E21 E28 E31 E32 E36 E39 E41"/>
    </vehicle>
    <vehicle id="359" depart="143.60">
        <route edges="E33 E30 E29 E27 E20 E17 E15 E11 E9 E6"/>
    </vehicle>
    <vehicle id="360" depart="144.00">
        <route edges="E44 E46 E38 E37 E35 E30 E29 E27 E24"/>
    </vehicle>
    <vehicle id="371" depart="148.40">
        <route edges="E32 E36 E39 E48 gneE22"/>
    </vehicle>
    <vehicle id="374" depart="149.60">
        <route edges="E18 E19 E21 E28 E31"/>
    </vehicle>
    <vehicle id="375" depart="150.00">
        <route edges="E4 E10 E12 E14"/>
    </vehicle>
    <vehicle id="377" depart="150.80">
        <route edges="E1 E4 E10 E12 E16 E18 E19 E21 E28 E31 E32 E36 E39 E48 gneE22 E53 E55"/>
    </vehicle>
    <vehicle id="380" depart="152.00">
        <route edges="E13 E16 E18 E19 E21 E28 E31 E32 E36 E39 E48 gneE22 E53 E57"/>
    </vehicle>
    <vehicle id="382" depart="152.80">
        <route edges="E45"/>
    </vehicle>
    <vehicle id="384" depart="153.60">
        <route edges="E49 E47"/>
    </vehicle>
    <vehicle id="388" depart="155.20">
        <route edges="E54 E52 E50 E49 E47 E41"/>
    </vehicle>
    <vehicle id="391" depart="156.40">
        <route edges="E31 E32 E36 E39 E45 E43"/>
    </vehicle>
    <vehicle id="393" depart="157.20">
        <route edges="E16 E18 E19 E21 E28 E31 E32 E36 E39 E48"/>
    </vehicle>
    <vehicle id="394" depart="157.60">
        <route edges="E16 E18 E19 E21 E28 E31 E32 E36 E39 E45"/>
    </vehicle>
    <vehicle id="397" depart="158.80">
        <route edges="E21 E28 E31 E32 E36 E39 E45"/>
    </vehicle>
    <vehicle id="398" depart="159.20">
        <route edges="E46 E48 gneE22 E53 E57 E58"/>
    </vehicle>
    <vehicle id="399" depart="159.60">
        <route edges="E25 E28 E31 E32 E36 E39 E41"/>
    </vehicle>
    <vehicle id="401" depart="160.40">
        <route edges="E4 E10 E12 E16 E18 E19"/>
    </vehicle>
    <vehicle id="402" depart="160.80">
        <route edges="E33 E30 E29 E27 E20 E17 E15 E11 E9 E2"/>
    </vehicle>
    <vehicle id="405" depart="162.00">
        <route edges="E29 E27 E20 E17 E15 E11 E9 E7"/>
    </vehicle>
    <vehicle id="408" depart="163.20">
        <route edges="E20 E17 E15"/>
    </vehicle>
    <vehicle id="409" depart="163.60">
        <route edges="E8 E10 E12 E14"/>
    </vehicle>
    <vehicle id="415" depart="166.00">
        <route edges="E47 E45 E43"/>
    </vehicle>
    <vehicle id="416" depart="166.40">
        <route edges="E40 E42 E38 E37 E35 E30 E29 E27 E20"/>
    </vehicle>
    <vehicle id="417" depart="166.80">
        <route edges="E5 E10 E12 E16 E18 E19 E21 E28 E31 E32 E34"/>
    </vehicle>
    <vehicle id="419" depart="167.60">
        <route edges="E13 E16"/>
    </vehicle>
    <vehicle id="420" depart="168.00">
        <route edges="E52 E50 E49 E47 E38 E37 E35 E30 E29 E27 E20 E17 E15 E11"/>
    </vehicle>
    <vehicle id="421" depart="168.40">
        <route edges="E8 E10 E12 E16 E18 E19 E21 E28 E31 E32 E34"/>
    </vehicle>
    <vehicle id="425" depart="170.00">
        <route edges="E17 E15 E11 E9"/>
    </vehicle>
    <vehicle id="427" depart="170.80">
        <route edges="E1 E4 E10 E12 E16 E18 E19 E21 E24"/>
    </vehicle>
    <vehicle id="428" depart="171.20">
        <route edges="E35 E30 E29 E27 E20 E17 E15"/>
    </vehicle>
    <vehicle id="431" depart="172.40">
        <route edges="E2"/>
    </vehicle>
    <vehicle id="432" depart="172.80">
        <route edges="E46 E38 E37 E35 E34"/>
    </vehicle>
    <vehicle id="433" depart="173.20">
        <route edges="E10 E12 E16 E18 E19 E21"/>
    </vehicle>
    <vehicle id="435" depart="174.00">
        <route edges="E12 E16 E18 E19 E21 E28 E31 E32 E36 E39 E41"/>
    </vehicle>
    <vehicle id="436" depart="174.40">
        <route edges="E26 E25 E20 E17 E15 E14"/>
    </vehicle>
    <vehicle id="437" depart="174.80">
        <route edges="E10 E12 E16 E18 E19 E21 E28 E31 E32 E36 E39 E48 gneE22 E53"/>
    </vehicle>
    <vehicle id="439" depart="175.60">
        <route edges="E37 E35 E30 E29 E27 E20 E17 E15 E11"/>
    </vehicle>
    <vehicle id="441" depart="176.40">
        <route edges="E42 E38 E37 E35 E30 E29 E27 E20 E17"/>
    </vehicle>
    <vehicle id="442" depart="176.80">
        <route edges="E56 E52 E50 E49 E47 E38 E37 E35 E30 E29 E27 E20 E17 E15 E11 E9 E2 E0"/>
    </vehicle>
    <vehicle id="444" depart="177.60">
        <route edges="E54 E52"/>
    </vehicle>
    <vehicle id="445" depart="178.00">
        <route edges="E31 E32 E34"/>
    </vehicle>
    <vehicle id="447" depart="178.80">
        <route edges="E50 E49 E47 E38 E37 E35 E30 E29 E27 E24"/>
    </vehicle>
    <vehicle id="452" depart="180.80">
        <route edges="E8 E10 E12 E16 E18 E19 E21 E28 E31 E32"/>
    </vehicle>
    <vehicle id="453" depart="181.20">
        <route edges="E54 E52 E50 E49 E47 E38 E37 E35 E30 E29 E27 E20 E17 E15 E11 E9"/>
    </vehicle>
    <vehicle id="455" depart="182.00">
        <route edges="E47 E38 E37 E35 E30 E29 E27 E20 E17 E15 E11 E9"/>
    </vehicle>
    <vehicle id="456" depart="182.40">
        <route edges="E25 E20 E17 E15 E11 E9 E6"/>
    </vehicle>
    <vehicle id="457" depart="182.80">
        <route edges="E49 E47"/>
    </vehicle>
    <vehicle id="462" depart="184.80">
        <route edges="E44 E46 E48 gneE22 E53 E57 E58"/>
    </vehicle>
    <vehicle id="463" depart="185.20">
        <route edges="E40 E42 E48 gneE22 E53 E55"/>
    </vehicle>
    <vehicle id="471" depart="188.40">
        <route edges="E52 E50 E49 E47 E38 E37"/>
    </vehicle>
    <vehicle id="474" depart="189.60">
        <route edges="E18 E19 E21 E28 E31 E32 E36 E39 E48 gneE22 E53 E57 E58"/>
    </vehicle>
    <vehicle id="475" depart="190.00">
        <route edges="E13 E16 E18 E19 E21 E24"/>
    </vehicle>
    <vehicle id="477" depart="190.80">
        <route edges="E26 E25 E28 E31 E32 E36 E39"/>
    </vehicle>
    <vehicle id="479" depart="191.60">
        <route edges="E28 E31 E32 E36 E39 E41"/>
    </vehicle>
    <vehicle id="480" depart="192.00">
        <route edges="E46 E38"/>
    </vehicle>
    <vehicle id="485" depart="194.00">
        <route edges="E29 E27 E20 E17"/>
    </vehicle>
    <vehicle id="486" depart="194.40">
        <route edges="E16 E18 E19 E21 E28 E31 E32 E36 E39 E48 gneE22 E53 E55"/>
    </vehicle>
    <vehicle id="488" depart="195.20">
        <route edges="E19"/>
    </vehicle>
    <vehicle id="489" depart="195.60">
        <route edges="E13 E16 E18 E19 E21 E23"/>
    </vehicle>
    <vehicle id="491" depart="196.40">
        <route edges="E25 E20 E17 E15 E11 E9"/>
    </vehicle>
    <vehicle id="492" depart="196.80">
        <route edges="E2 E0"/>
    </vehicle>
    <vehicle id="495" depart="198.00">
        <route edges="E26 E25 E28 E31 E32 E36 E39 E48 gneE22 E53 E55"/>
    </vehicle>
    <vehicle id="498" depart="199.20">
        <route edges="E13 E16 E18 E19 E21 E28 E31 E32 E36 E39 E48 gneE22"/>
    </vehicle>
    <vehicle id="499" depart="199.60">
        <route edges="E54 E52 E50 E49 E47 E38 E37 E35 E30"/>
    </vehicle>
    <vehicle id="506" depart="202.40">
        <route edges="E2"/>
    </vehicle>
    <vehicle id="510" depart="204.00">
        <route edges="E49 E47 E38"/>
    </vehicle>
    <vehicle id="511" depart="204.40">
        <route edges="E16 E18 E19 E21 E24"/>
    </vehicle>
    <vehicle id="514" depart="205.60">
        <route edges="E25 E20 E17 E15 E11 E9 E2"/>
    </vehicle>
    <vehicle id="516" depart="206.40">
        <route edges="E52 E50 E49 E47 E38 E37 E35 E30 E29 E27 E20 E17 E15 E11"/>
    </vehicle>
    <vehicle id="517" depart="206.80">
        <route edges="E50 E49 E47 E38 E37 E35"/>
    </vehicle>
    <vehicle id="519" depart="207.60">
        <route edges="E31 E32 E36 E39 E48 gneE22 E53 E55"/>
    </vehicle>
    <vehicle id="522" depart="208.80">
        <route edges="E25 E28 E31"/>
    </vehicle>
    <vehicle id="531" depart="212.40">
        <route edges="E1 E4 E10 E12"/>
    </vehicle>
    <vehicle id="533" depart="213.20">
        <route edges="E49 E47 E38 E37 E35 E30 E29 E27 E20 E17 E15 E11 E9 E6"/>
    </vehicle>
    <vehicle id="534" depart="213.60">
        <route edges="E18 E19 E21"/>
    </vehicle>
    <vehicle id="540" depart="216.00">
        <route edges="E54 E52 E50 E49 E47 E38 E37"/>
    </vehicle>
    <vehicle id="547" depart="218.80">
        <route edges="E49 E47 E38 E37 E35 E30 E29 E27 E20 E17 E15 E11 E9 E2 E0"/>
    </vehicle>
    <vehicle id="549" depart="219.60">
        <route edges="E2 E0"/>
    </vehicle>
    <vehicle id="552" depart="220.80">
        <route edges="E40 E42 E38 E37 E35 E30 E29 E27 E20 E17 E15 E11 E9"/>
    </vehicle>
    <vehicle id="553" depart="221.20">
        <route edges="E18 E19 E21 E23"/>
    </vehicle>
    <vehicle id="555" depart="222.00">
        <route edges="E8 E10 E12 E16 E18 E19 E21 E28"/>
    </vehicle>
    <vehicle id="563" depart="225.20">
        <route edges="E16 E18 E19 E21 E28 E31 E32 E36 E39 E48 gneE22 E53 E57"/>
    </vehicle>
    <vehicle id="572" depart="228.80">
        <route edges="E21 E28 E31 E32 E36 E39 E45"/>
    </vehicle>
    <vehicle id="574" depart="229.60">
        <route edges="E32 E36 E39 E48 gneE22 E53"/>
    </vehicle>
    <vehicle id="575" depart="230.00">
        <route edges="E33 E30 E29 E27 E20 E17"/>
    </vehicle>
    <vehicle id="579" depart="231.60">
        <route edges="E25 E23"/>
    </vehicle>
    <vehicle id="581" depart="232.40">
        <route edges="E30 E29 E27 E20 E17 E15 E14"/>
    </vehicle>
    <vehicle id="589" depart="235.60">
        <route edges="E8 E10 E12 E16 E18 E19 E21 E28 E31 E32 E36 E39 E48 gneE22 E53 E55"/>
    </vehicle>
    <vehicle id="591" depart="236.40">
        <route edges="E38 E37 E35 E30"/>
    </vehicle>
    <vehicle id="593" depart="237.20">
        <route edges="E8 E10 E12 E16 E18 E19 E21 E28 E31 E32 E36 E39 E45"/>
    </vehicle>
    <vehicle id="594" depart="237.60">
        <route edges="E37 E35 E30 E29 E27 E20 E17 E15 E11 E9"/>
    </vehicle>
    <vehicle id="595" depart="238.00">
        <route edges="E8 E10 E12 E16 E18 E19 E21 E28 E31"/>
    </vehicle>
    <vehicle id="596" depart="238.40">
        <route edges="E4 E10 E12 E16 E18 E19 E21 E28 E31 E32 E36 E39 E48 gneE22 E53 E57 E58"/>
    </vehicle>
    <vehicle id="597" depart="238.80">
        <route edges="E26 E25"/>
    </vehicle>
    <vehicle id="601" depart="240.40">
        <route edges="E4 E10 E12 E16 E18 E19 E21 E23"/>
    </vehicle>
    <vehicle id="602" depart="240.80">
        <route edges="E13 E16 E18"/>
    </vehicle>
    <vehicle id="607" depart="242.80">
        <route edges="E19 E21 E28 E31"/>
    </vehicle>
    <vehicle id="608" depart="243.20">
        <route edges="E16 E18 E19 E21 E24"/>
    </vehicle>
    <vehicle id="609" depart="243.60">
        <route edges="E46 E38 E37 E35 E30 E29"/>
    </vehicle>
    <vehicle id="611" depart="244.40">
        <route edges="E8 E10 E12 E16 E18 E19 E21 E28 E31 E32 E36 E39 E45 E43"/>
    </vehicle>
    <vehicle id="612" depart="244.80">
        <route edges="E35 E30 E29 E27 E20 E17 E15 E11 E9 E6"/>
    </vehicle>
    <vehicle id="613" depart="245.20">
        <route edges="E20 E17 E15 E11 E9"/>
    </vehicle>
    <vehicle id="614" depart="245.60">
        <route edges="E44 E46 E38 E37 E35 E30 E29 E27 E20 E17"/>
    </vehicle>
    <vehicle id="615" depart="246.00">
        <route edges="E45"/>
    </vehicle>
    <vehicle id="626" depart="250.40">
        <route edges="E19 E21 E23"/>
    </vehicle>
    <vehicle id="627" depart="250.80">
        <route edges="E47 E38 E37 E35 E30 E29 E27 E23"/>
    </vehicle>
    <vehicle id="628" depart="251.20">
        <route edges="E36"/>
    </vehicle>
    <vehicle id="632" depart="252.80">
        <route edges="E1 E4 E10 E12 E16 E18 E19 E21 E28 E31"/>
    </vehicle>
    <vehicle id="633" depart="253.20">
        <route edges="E19 E21 E28 E31 E32 E36 E39 E48 gneE22 E53 E55"/>
    </vehicle>
    <vehicle id="635" depart="254.00">
        <route edges="E36 E39 E41"/>
    </vehicle>
    <vehicle id="637" depart="254.80">
        <route edges="E44 E46 E38 E37 E35 E30 E29 E27 E20 E17 E15 E11"/>
    </vehicle>
    <vehicle id="638" depart="255.20">
        <route edges="E52 E50 E49 E47 E38 E37 E35 E30 E29 E27 E20 E17 E15 E11"/>
    </vehicle>
    <vehicle id="640" depart="256.00">
        <route edges="E32 E36 E39 E48 gneE22 E53 E55"/>
    </vehicle>
    <vehicle id="641" depart="256.40">
        <route edges="E49 E47 E38 E37"/>
    </vehicle>
    <vehicle id="642" depart="256.80">
        <route edges="E54 E52 E50 E49 E47 E38 E37 E35 E30 E29 E27 E20 E17 E15 E11 E9 E2"/>
    </vehicle>
    <vehicle id="643" depart="257.20">
        <route edges="E40 E42 E38 E37 E35 E30 E29 E27 E20 E17 E15 E11"/>
    </vehicle>
    <vehicle id="646" depart="258.40">
        <route edges="E5 E10 E12 E16 E18 E19 E21 E28 E31 E32 E36 E39 E48"/>
    </vehicle>
    <vehicle id="647" depart="258.80">
        <route edges="E28 E31 E32 E36 E39 E41"/>
    </vehicle>
    <vehicle id="648" depart="259.20">