<?xml version="1.0" encoding="UTF-8"?>

<!-- generated on 2021-09-29 19:49:07 by Eclipse SUMO duarouter Version 1.9.2
<configuration xmlns:xsi="http://www.w3.org/2001/XMLSchema-instance" xsi:noNamespaceSchemaLocation="http://sumo.dlr.de/xsd/duarouterConfiguration.xsd">

    <input>
        <net-file value="/home/sonic/Desktop/nets/case06/intersection.net.xml"/>
        <route-files value="trips.trips.xml"/>
    </input>

    <output>
        <output-file value="intersection_random37.rou.xml"/>
        <alternatives-output value="intersection_random37.rou.alt.xml"/>
    </output>

    <time>
        <begin value="0"/>
        <end value="18000.0"/>
    </time>

    <report>
        <no-warnings value="true"/>
        <ignore-errors value="true"/>
        <no-step-log value="true"/>
    </report>

</configuration>
-->

<routes xmlns:xsi="http://www.w3.org/2001/XMLSchema-instance" xsi:noNamespaceSchemaLocation="http://sumo.dlr.de/xsd/routes_file.xsd">
    <vehicle id="3" depart="1.20">
        <route edges="E22 E28 E31 E32 E36 E39 E48 gneE22 E53 E57 E58"/>
    </vehicle>
    <vehicle id="6" depart="2.40">
        <route edges="E40 E42 E38 E37 E35 E30 E29 E27"/>
    </vehicle>
    <vehicle id="9" depart="3.60">
        <route edges="E20 E17 E15 E11 E9"/>
    </vehicle>
    <vehicle id="10" depart="4.00">
        <route edges="E26 E25 E28 E31 E32 E36"/>
    </vehicle>
    <vehicle id="14" depart="5.60">
        <route edges="E40 E42 E48 gneE22 E53 E57"/>
    </vehicle>
    <vehicle id="15" depart="6.00">
        <route edges="E40 E42 E45"/>
    </vehicle>
    <vehicle id="21" depart="8.40">
        <route edges="E26 E25 E28 E31 E32 E36 E39 E45"/>
    </vehicle>
    <vehicle id="28" depart="11.20">
        <route edges="E33 E36 E39 E48 gneE22"/>
    </vehicle>
    <vehicle id="33" depart="13.20">
        <route edges="E35 E30 E29 E27 E20 E17 E15 E11 E9 E2 E0"/>
    </vehicle>
    <vehicle id="36" depart="14.40">
        <route edges="E30 E29 E27 E20 E17 E15 E11 E9 E2"/>
    </vehicle>
    <vehicle id="49" depart="19.60">
        <route edges="E5 E10 E12 E16 E18 E19 E21 E28 E31 E32 E34"/>
    </vehicle>
    <vehicle id="51" depart="20.40">
        <route edges="E54 E52 E50 E49 E47 E38 E37 E35 E30 E29 E27 E20 E17 E15 E11 E9 E2"/>
    </vehicle>
    <vehicle id="52" depart="20.80">
        <route edges="E20 E17 E15 E11 E9 E2 E0"/>
    </vehicle>
    <vehicle id="53" depart="21.20">
        <route edges="E10 E12 E16"/>
    </vehicle>
    <vehicle id="56" depart="22.40">
        <route edges="E49 E47 E38 E37 E35 E30 E29 E27 E20 E17 E15 E11"/>
    </vehicle>
    <vehicle id="57" depart="22.80">
        <route edges="E10 E12 E16 E18 E19 E21 E28 E31 E32 E36 E39 E48 gneE22 E53 E55"/>
    </vehicle>
    <vehicle id="60" depart="24.00">
        <route edges="E54 E52 E50 E49 E47 E38 E37 E35 E30 E29"/>
    </vehicle>
    <vehicle id="61" depart="24.40">
        <route edges="E29 E27 E20 E17 E15 E11 E9 E7"/>
    </vehicle>
    <vehicle id="63" depart="25.20">
        <route edges="E12 E16 E18 E19 E21 E28 E31 E32 E34"/>
    </vehicle>
    <vehicle id="65" depart="26.00">
        <route edges="E33 E30 E29 E27 E20 E17 E15 E11 E9 E2"/>
    </vehicle>
    <vehicle id="66" depart="26.40">
        <route edges="E40 E42 E48 gneE22 E53"/>
    </vehicle>
    <vehicle id="69" depart="27.60">
        <route edges="E4 E10"/>
    </vehicle>
    <vehicle id="77" depart="30.80">
        <route edges="E39 E48 gneE22 E53 E55"/>
    </vehicle>
    <vehicle id="79" depart="31.60">
        <route edges="E5 E10 E12 E16 E18 E19 E21 E28"/>
    </vehicle>
    <vehicle id="82" depart="32.80">
        <route edges="E36 E39 E48 gneE22 E53 E57"/>
    </vehicle>
    <vehicle id="83" depart="33.20">
        <route edges="E44 E46"/>
    </vehicle>
    <vehicle id="87" depart="34.80">
        <route edges="E49 E47 E38 E37 E35 E30 E29 E27 E24"/>
    </vehicle>
    <vehicle id="89" depart="35.60">
        <route edges="E26 E25 E20 E17 E15"/>
    </vehicle>
    <vehicle id="90" depart="36.00">
        <route edges="E25 E28 E31 E32 E36 E39 E45 E43"/>
    </vehicle>
    <vehicle id="92" depart="36.80">
        <route edges="E47"/>
    </vehicle>
    <vehicle id="101" depart="40.40">
        <route edges="E50 E49 E47 E38 E37 E35 E30 E29 E27 E20 E17 E15 E11 E9"/>
    </vehicle>
    <vehicle id="102" depart="40.80">
        <route edges="E18 E19 E21 E28 E31"/>
    </vehicle>
    <vehicle id="103" depart="41.20">
        <route edges="E36 E39 E48"/>
    </vehicle>
    <vehicle id="105" depart="42.00">
        <route edges="gneE22 E53 E57"/>
    </vehicle>
    <vehicle id="106" depart="42.40">
        <route edges="E8 E10 E12"/>
    </vehicle>
    <vehicle id="108" depart="43.20">
        <route edges="E21 E28 E31 E32 E34"/>
    </vehicle>
    <vehicle id="110" depart="44.00">
        <route edges="E11 E9 E6"/>
    </vehicle>
    <vehicle id="111" depart="44.40">
        <route edges="E26 E25 E28 E31 E32"/>
    </vehicle>
    <vehicle id="112" depart="44.80">
        <route edges="E32 E36 E39 E48 gneE22 E53 E55"/>
    </vehicle>
    <vehicle id="113" depart="45.20">
        <route edges="E54 E52 E50 E49 E47 E38 E37 E35 E30 E29 E27 E20 E17"/>
    </vehicle>
    <vehicle id="114" depart="45.60">
        <route edges="E52 E50 E49 E47 E38 E37 E35 E30 E29 E27 E23"/>
    </vehicle>
    <vehicle id="115" depart="46.00">
        <route edges="E32"/>
    </vehicle>
    <vehicle id="116" depart="46.40">
        <route edges="E46 E38 E37 E35 E30 E29 E27 E20 E17 E15 E11 E9 E2"/>
    </vehicle>
    <vehicle id="118" depart="47.20">
        <route edges="E42 E38 E37 E35"/>
    </vehicle>
    <vehicle id="123" depart="49.20">
        <route edges="E50 E49 E47 E38 E37 E35 E30 E29 E27 E20 E17 E15 E11"/>
    </vehicle>
    <vehicle id="128" depart="51.20">
        <route edges="E1 E4 E7"/>
    </vehicle>
    <vehicle id="131" depart="52.40">
        <route edges="E47 E45"/>
    </vehicle>
    <vehicle id="133" depart="53.20">
        <route edges="E42 E48"/>
    </vehicle>
    <vehicle id="134" depart="53.60">
        <route edges="E22 E28 E31 E32 E36 E39 E48 gneE22 E53 E57 E58"/>
    </vehicle>
    <vehicle id="137" depart="54.80">
        <route edges="E1 E4 E10 E12 E16 E18 E19 E21 E28 E31 E32 E36 E39 E41"/>
    </vehicle>
    <vehicle id="143" depart="57.20">
        <route edges="E37 E35 E30 E29 E27"/>
    </vehicle>
    <vehicle id="144" depart="57.60">
        <route edges="E49 E47 E38 E37 E35 E30 E29 E27 E20"/>
    </vehicle>
    <vehicle id="147" depart="58.80">
        <route edges="E54 E52 E50 E49 E47 E38 E37 E35 E30 E29 E27 E23"/>
    </vehicle>
    <vehicle id="152" depart="60.80">
        <route edges="E1 E4 E10 E12 E16 E18 E19 E21 E28 E31 E32 E36"/>
    </vehicle>
    <vehicle id="153" depart="61.20">
        <route edges="E10 E12 E16 E18 E19 E21 E28 E31 E32 E36 E39"/>
    </vehicle>
    <vehicle id="155" depart="62.00">
        <route edges="E47 E38 E37 E35 E30 E29"/>
    </vehicle>
    <vehicle id="156" depart="62.40">
        <route edges="E40 E42 E38 E37 E35 E34"/>
    </vehicle>
    <vehicle id="157" depart="62.80">
        <route edges="E52 E50 E49 E47 E38 E37 E35 E30 E29 E27 E20 E17 E15"/>
    </vehicle>
    <vehicle id="162" depart="64.80">
        <route edges="E39"/>
    </vehicle>
    <vehicle id="163" depart="65.20">
        <route edges="E33 E30 E29 E27 E20 E17 E15 E11 E9 E6"/>
    </vehicle>
    <vehicle id="165" depart="66.00">
        <route edges="E44 E46 E38 E37 E35 E30"/>
    </vehicle>
    <vehicle id="171" depart="68.40">
        <route edges="E54 E52 E50 E49"/>
    </vehicle>
    <vehicle id="174" depart="69.60">
        <route edges="E8 E10 E12 E16 E18 E19 E21 E28 E31 E32 E36 E39 E48 gneE22 E53 E57 E58"/>
    </vehicle>
    <vehicle id="175" depart="70.00">
        <route edges="E16 E18 E19"/>
    </vehicle>
    <vehicle id="183" depart="73.20">
        <route edges="E38 E37 E35 E30 E29 E27 E20 E17 E15 E14"/>
    </vehicle>
    <vehicle id="189" depart="75.60">
        <route edges="E26 E25"/>
    </vehicle>
    <vehicle id="190" depart="76.00">
        <route edges="E37 E35 E30 E29 E27 E20 E17 E15 E11"/>
    </vehicle>
    <vehicle id="192" depart="76.80">
        <route edges="E25 E28 E31 E32 E36 E39 E48"/>
    </vehicle>
    <vehicle id="199" depart="79.60">
        <route edges="E27 E20 E17 E15 E11 E9 E2 E0"/>
    </vehicle>
    <vehicle id="200" depart="80.00">
        <route edges="E27 E20 E17 E15 E11 E9 E6"/>
    </vehicle>
    <vehicle id="201" depart="80.40">
        <route edges="E42 E38 E37 E35 E30 E29 E27 E20 E17 E15 E11"/>
    </vehicle>
    <vehicle id="202" depart="80.80">
        <route edges="E21 E28 E31 E32 E36"/>
    </vehicle>
    <vehicle id="206" depart="82.40">
        <route edges="E40 E42 E38 E37 E35 E30 E29 E27 E20 E17 E15 E11 E9 E7"/>
    </vehicle>
    <vehicle id="217" depart="86.80">
        <route edges="E10 E12 E16 E18 E19 E21 E28 E31 E32"/>
    </vehicle>
    <vehicle id="218" depart="87.20">
        <route edges="E9 E6"/>
    </vehicle>
    <vehicle id="219" depart="87.60">
        <route edges="E22 E20"/>
    </vehicle>
    <vehicle id="220" depart="88.00">
        <route edges="E12 E16 E18 E19 E21 E28"/>
    </vehicle>
    <vehicle id="223" depart="89.20">
        <route edges="E54 E52 E50 E49 E47 E38 E37 E35 E30 E29 E27 E20 E17 E15 E14"/>
    </vehicle>
    <vehicle id="224" depart="89.60">
        <route edges="E27 E23"/>
    </vehicle>
    <vehicle id="229" depart="91.60">
        <route edges="E4 E7"/>
    </vehicle>
    <vehicle id="232" depart="92.80">
        <route edges="E35 E30 E29 E27 E20 E17 E15 E14"/>
    </vehicle>
    <vehicle id="239" depart="95.60">
        <route edges="E4 E10 E12 E16"/>
    </vehicle>
    <vehicle id="243" depart="97.20">
        <route edges="E42 E38 E37 E35 E30 E29 E27 E20 E17 E15 E11 E9 E6"/>
    </vehicle>
    <vehicle id="247" depart="98.80">
        <route edges="E5 E10 E12 E16 E18 E19 E21 E28 E31 E32 E36 E39 E48 gneE22"/>
    </vehicle>
    <vehicle id="252" depart="100.80">
        <route edges="E22 E20 E17 E15 E11 E9"/>
    </vehicle>
    <vehicle id="254" depart="101.60">
        <route edges="E1 E4 E6"/>
    </vehicle>
    <vehicle id="256" depart="102.40">
        <route edges="E30 E29"/>
    </vehicle>
    <vehicle id="257" depart="102.80">
        <route edges="E49 E47 E45"/>
    </vehicle>
    <vehicle id="261" depart="104.40">
        <route edges="E40 E42 E38 E37 E35 E30 E29 E27 E20"/>
    </vehicle>
    <vehicle id="266" depart="106.40">
        <route edges="E12 E16 E18 E19 E21 E28 E31 E32 E36 E39 E48"/>
    </vehicle>
    <vehicle id="272" depart="108.80">
        <route edges="E30 E29 E27 E20 E17 E15 E11 E9 E2 E0"/>
    </vehicle>
    <vehicle id="273" depart="109.20">
        <route edges="E37 E35 E30 E29 E27"/>
    </vehicle>
    <vehicle id="275" depart="110.00">
        <route edges="E22 E28"/>
    </vehicle>
    <vehicle id="286" depart="114.40">
        <route edges="E33 E30 E29 E27 E20 E17 E15 E11 E9 E6"/>
    </vehicle>
    <vehicle id="287" depart="114.80">
        <route edges="E48 gneE22 E53 E57 E58"/>
    </vehicle>
    <vehicle id="288" depart="115.20">
        <route edges="E19"/>
    </vehicle>
    <vehicle id="292" depart="116.80">
        <route edges="E8 E10"/>
    </vehicle>
    <vehicle id="293" depart="117.20">
        <route edges="E50 E49 E47 E38 E37 E35 E30 E29 E27 E20 E17 E15 E11 E9 E2 E0"/>
    </vehicle>
    <vehicle id="294" depart="117.60">
        <route edges="E21 E28 E31 E32 E36 E39 E48 gneE22 E53 E57 E58"/>
    </vehicle>
    <vehicle id="295" depart="118.00">
        <route edges="E4 E10 E12 E16 E18 E19 E21 E28 E31 E32 E36 E39"/>
    </vehicle>
    <vehicle id="299" depart="119.60">
        <route edges="E8 E10 E12 E16 E18 E19 E21 E24"/>
    </vehicle>
    <vehicle id="301" depart="120.40">
        <route edges="E26 E25 E20 E17"/>
    </vehicle>
    <vehicle id="305" depart="122.00">
        <route edges="E42 E45 E43"/>
    </vehicle>
    <vehicle id="306" depart="122.40">
        <route edges="E22 E28 E31 E32 E36 E39 E41"/>
    </vehicle>
    <vehicle id="309" depart="123.60">
        <route edges="E5 E10 E12 E16 E18 E19 E21 E28 E31 E32"/>
    </vehicle>
    <vehicle id="312" depart="124.80">
        <route edges="E50 E49 E47 E38 E37 E35 E30 E29 E27 E20 E17"/>
    </vehicle>
    <vehicle id="315" depart="126.00">
        <route edges="E54 E52 E50"/>
    </vehicle>
    <vehicle id="316" depart="126.40">
        <route edges="E13 E16 E18 E19 E21 E28 E31 E32 E36 E39 E48"/>
    </vehicle>
    <vehicle id="317" depart="126.80">
        <route edges="E54 E52 E50 E49 E47 E45"/>
    </vehicle>
    <vehicle id="318" depart="127.20">
        <route edges="E27 E20 E17 E15 E11"/>
    </vehicle>
    <vehicle id="320" depart="128.00">
        <route edges="E26 E25 E20 E17 E15 E11 E9 E6"/>
    </vehicle>
    <vehicle id="322" depart="128.80">
        <route edges="E30"/>
    </vehicle>
    <vehicle id="323" depart="129.20">
        <route edges="E27 E24"/>
    </vehicle>
    <vehicle id="324" depart="129.60">
        <route edges="E20 E17 E15 E11 E9 E7"/>
    </vehicle>
    <vehicle id="325" depart="130.00">
        <route edges="E47 E38 E37 E35 E30 E29 E27 E20 E17 E15 E11 E9 E7"/>
    </vehicle>
    <vehicle id="326" depart="130.40">
        <route edges="E33 E36 E39 E48 gneE22 E53 E55"/>
    </vehicle>
    <vehicle id="328" depart="131.20">
        <route edges="E21 E28 E31 E32 E36 E39 E48 gneE22"/>
    </vehicle>
    <vehicle id="329" depart="131.60">
        <route edges="E33 E36 E39 E48 gneE22 E53"/>
    </vehicle>
    <vehicle id="332" depart="132.80">
        <route edges="E5 E10 E12 E16 E18 E19 E21 E28 E31 E32 E36 E39 E41"/>
    </vehicle>
    <vehicle id="337" depart="134.80">
        <route edges="E46"/>
    </vehicle>
    <vehicle id="341" depart="136.40">
        <route edges="E16 E18"/>
    </vehicle>
    <vehicle id="345" depart="138.00">
        <route edges="E25 E28 E31 E32 E36 E39 E48 gneE22 E53 E55"/>
    </vehicle>
    <vehicle id="348" depart="139.20">
        <route edges="E56 E52 E50 E49 E47 E38 E37 E35 E30 E29 E27 E20 E17 E15 E14"/>
    </vehicle>
    <vehicle id="350" depart="140.00">
        <route edges="E1 E4 E10 E12 E16 E18 E19 E21 E28 E31 E32 E36 E39 E48 gneE22"/>
    </vehicle>
    <vehicle id="351" depart="140.40">
        <route edges="E10 E12"/>
    </vehicle>
    <vehicle id="354" depart="141.60">
        <route edges="E5 E10 E12 E16 E18 E19 E21 E28 E31 E32 E34"/>
    </vehicle>
    <vehicle id="359" depart="143.60">
        <route edges="E38 E37 E35 E30 E29 E27 E24"/>
    </vehicle>
    <vehicle id="362" depart="144.80">
        <route edges="E47 E38 E37 E35 E30 E29 E27 E20 E17 E15 E11 E9"/>
    </vehicle>
    <vehicle id="365" depart="146.00">
        <route edges="E4 E10 E12 E16 E18 E19 E21 E28 E31"/>
    </vehicle>
    <vehicle id="366" depart="146.40">
        <route edges="E1 E4 E10 E12 E16 E18 E19 E21 E28 E31 E32 E36 E39 E48 gneE22 E53"/>
    </vehicle>
    <vehicle id="367" depart="146.80">
        <route edges="E19 E21 E28 E31 E32 E36 E39 E48 gneE22 E53"/>
    </vehicle>
    <vehicle id="370" depart="148.00">
        <route edges="E47 E38 E37 E35 E30 E29"/>
    </vehicle>
    <vehicle id="374" depart="149.60">
        <route edges="E56 E52 E50 E49"/>
    </vehicle>
    <vehicle id="375" depart="150.00">
        <route edges="E33 E36"/>
    </vehicle>
    <vehicle id="377" depart="150.80">
        <route edges="E38 E37 E35 E30 E29 E27 E20 E17 E15 E11 E9 E2"/>
    </vehicle>
    <vehicle id="378" depart="151.20">
        <route edges="E21 E28 E31 E32 E34"/>
    </vehicle>
    <vehicle id="380" depart="152.00">
        <route edges="E25 E20 E17 E15 E11"/>
    </vehicle>
    <vehicle id="382" depart="152.80">
        <route edges="E38 E37 E35 E30 E29 E27 E20 E17 E15 E11 E9 E2"/>
    </vehicle>
    <vehicle id="385" depart="154.00">
        <route edges="E26 E25 E28 E31 E32 E36 E39 E48 gneE22 E53 E57 E58"/>
    </vehicle>
    <vehicle id="387" depart="154.80">
        <route edges="E33 E30 E29"/>
    </vehicle>
    <vehicle id="388" depart="155.20">
        <route edges="E8 E10 E12 E16 E18 E19 E21 E28 E31 E32 E36 E39 E45"/>
    </vehicle>
    <vehicle id="389" depart="155.60">
        <route edges="E38 E37 E35 E30 E29 E27 E20 E17 E15 E11 E9 E2"/>
    </vehicle>
    <vehicle id="390" depart="156.00">
        <route edges="E42 E48 gneE22 E53"/>
    </vehicle>
    <vehicle id="391" depart="156.40">
        <route edges="E1 E4 E10 E12 E16 E18 E19 E21 E28 E31 E32 E34"/>
    </vehicle>
    <vehicle id="392" depart="156.80">
        <route edges="E28 E31 E32 E36 E39 E41"/>
    </vehicle>
    <vehicle id="395" depart="158.00">
        <route edges="E13 E16 E18 E19 E21 E28 E31 E32 E36 E39 E48 gneE22 E53 E57 E58"/>
    </vehicle>
    <vehicle id="403" depart="161.20">
        <route edges="E5 E10 E12"/>
    </vehicle>
    <vehicle id="405" depart="162.00">
        <route edges="E22 E20 E17 E15 E11 E9 E6"/>
    </vehicle>
    <vehicle id="406" depart="162.40">
        <route edges="E33 E36 E39 E48 gneE22"/>
    </vehicle>
    <vehicle id="407" depart="162.80">
        <route edges="E4 E6"/>
    </vehicle>
    <vehicle id="408" depart="163.20">
        <route edges="E42 E38 E37 E35 E30 E29 E27 E20 E17 E15 E11 E9 E2 E0"/>
    </vehicle>
    <vehicle id="410" depart="164.00">
        <route edges="E44 E46 E48 gneE22 E53 E57"/>
    </vehicle>
    <vehicle id="413" depart="165.20">
        <route edges="E17 E15 E11 E9 E2 E0"/>
    </vehicle>
    <vehicle id="414" depart="165.60">
        <route edges="E36 E39 E48 gneE22 E53 E57"/>
    </vehicle>
    <vehicle id="415" depart="166.00">
        <route edges="E4 E10 E12 E16 E18 E19 E21 E24"/>
    </vehicle>
    <vehicle id="418" depart="167.20">
        <route edges="E57"/>
    </vehicle>
    <vehicle id="423" depart="169.20">
        <route edges="E19 E21 E28 E31 E32"/>
    </vehicle>
    <vehicle id="425" depart="170.00">
        <route edges="E54 E57"/>
    </vehicle>
    <vehicle id="426" depart="170.40">
        <route edges="E5 E10 E12 E16 E18 E19 E21"/>
    </vehicle>
    <vehicle id="427" depart="170.80">
        <route edges="E5 E2 E0"/>
    </vehicle>
    <vehicle id="428" depart="171.20">
        <route edges="E5 E10 E12 E16 E18 E19 E21 E28 E31 E32 E36 E39 E48 gneE22 E53 E57 E58"/>
    </vehicle>
    <vehicle id="431" depart="172.40">
        <route edges="E35 E30 E29 E27 E20 E17 E15 E11 E9 E2 E0"/>
    </vehicle>
    <vehicle id="433" depart="173.20">
        <route edges="E29 E27 E20 E17 E15 E11"/>
    </vehicle>
    <vehicle id="436" depart="174.40">
        <route edges="E40 E42 E38 E37 E35"/>
    </vehicle>
    <vehicle id="437" depart="174.80">
        <route edges="E53"/>
    </vehicle>
    <vehicle id="439" depart="175.60">
        <route edges="E37 E35 E34"/>
    </vehicle>
    <vehicle id="449" depart="179.60">
        <route edges="E46 E38 E37 E35 E30"/>
    </vehicle>
    <vehicle id="451" depart="180.40">
        <route edges="E28 E31 E32 E36"/>
    </vehicle>
    <vehicle id="452" depart="180.80">
        <route edges="E37 E35 E30 E29 E27"/>
    </vehicle>
    <vehicle id="455" depart="182.00">
        <route edges="E28 E31 E32 E36"/>
    </vehicle>
    <vehicle id="456" depart="182.40">
        <route edges="E44 E46 E38 E37 E35 E30 E29 E27 E20 E17 E15 E11 E9 E2"/>
    </vehicle>
    <vehicle id="460" depart="184.00">
        <route edges="E37 E35"/>
    </vehicle>
    <vehicle id="461" depart="184.40">
        <route edges="E16 E18 E19 E21 E28 E31 E32 E36 E39 E48"/>
    </vehicle>
    <vehicle id="465" depart="186.00">
        <route edges="E29 E27 E20 E17 E15 E11 E9 E7"/>
    </vehicle>
    <vehicle id="467" depart="186.80">
        <route edges="E12 E16 E18 E19 E21 E28 E31"/>
    </vehicle>
    <vehicle id="468" depart="187.20">
        <route edges="E28 E31 E32 E36"/>
    </vehicle>
    <vehicle id="476" depart="190.40">
        <route edges="E12 E16 E18 E19 E21 E28"/>
    </vehicle>
    <vehicle id="478" depart="191.20">
        <route edges="E22 E20 E17 E15 E11"/>
    </vehicle>
    <vehicle id="479" depart="191.60">
        <route edges="E25 E28 E31 E32 E36 E39 E45 E43"/>
    </vehicle>
    <vehicle id="482" depart="192.80">
        <route edges="E5 E10 E12 E16 E18 E19 E21 E28 E31 E32 E36 E39 E48 gneE22 E53 E57 E58"/>
    </vehicle>
    <vehicle id="483" depart="193.20">
        <route edges="E38 E37 E35 E30 E29 E27 E20 E17 E15 E11"/>
    </vehicle>
    <vehicle id="485" depart="194.00">
        <route edges="E46 E48 gneE22 E53"/>
    </vehicle>
    <vehicle id="488" depart="195.20">
        <route edges="E46 E38 E37 E35 E30 E29 E27 E20"/>
    </vehicle>
    <vehicle id="489" depart="195.60">
        <route edges="gneE22"/>
    </vehicle>
    <vehicle id="490" depart="196.00">
        <route edges="E19 E21 E28"/>
    </vehicle>
    <vehicle id="491" depart="196.40">
        <route edges="E8 E10"/>
    </vehicle>
    <vehicle id="494" depart="197.60">
        <route edges="E42 E38 E37 E35 E30 E29 E27 E20 E17"/>
    </vehicle>
    <vehicle id="495" depart="198.00">
        <route edges="E19 E21"/>
    </vehicle>
    <vehicle id="500" depart="200.00">
        <route edges="E4 E10 E12 E16 E18 E19 E21 E28 E31 E32 E36 E39 E48 gneE22"/>
    </vehicle>
    <vehicle id="501" depart="200.40">
        <route edges="E28 E31 E32"/>
    </vehicle>
    <vehicle id="503" depart="201.20">
        <route edges="E17"/>
    </vehicle>
    <vehicle id="505" depart="202.00">
        <route edges="E39 E45"/>
    </vehicle>
    <vehicle id="506" depart="202.40">
        <route edges="E1 E4 E10 E12 E14"/>
    </vehicle>
    <vehicle id="508" depart="203.20">
        <route edges="E50 E49 E47 E38 E37 E35 E30 E29"/>
    </vehicle>
    <vehicle id="509" depart="203.60">
        <route edges="E50 E49 E47 E38 E37 E35 E30 E29 E27 E20 E17 E15 E11 E9"/>
    </vehicle>
    <vehicle id="514" depart="205.60">
        <route edges="E37 E35 E30 E29 E27 E20 E17 E15 E11 E9 E2 E0"/>
    </vehicle>
    <vehicle id="515" depart="206.00">
        <route edges="E35 E30 E29 E27 E20 E17 E15 E11 E9"/>
    </vehicle>
    <vehicle id="517" depart="206.80">
        <route edges="E17 E15 E14"/>
    </vehicle>
    <vehicle id="518" depart="207.20">
        <route edges="E39 E48 gneE22 E53 E57 E58"/>
    </vehicle>
    <vehicle id="519" depart="207.60">
        <route edges="E29 E27"/>
    </vehicle>
    <vehicle id="524" depart="209.60">
        <route edges="E42 E48 gneE22"/>
    </vehicle>
    <vehicle id="525" depart="210.00">
        <route edges="E56 E52 E50 E49 E47 E38 E37 E35 E30 E29 E27 E20 E17 E15 E14"/>
    </vehicle>
    <vehicle id="529" depart="211.60">
        <route edges="E46 E38 E37 E35 E30 E29"/>
    </vehicle>
    <vehicle id="530" depart="212.00">
        <route edges="E18 E19 E21 E28 E31 E32"/>
    </vehicle>
    <vehicle id="535" depart="214.00">
        <route edges="E38 E37 E35"/>
    </vehicle>
    <vehicle id="537" depart="214.80">
        <route edges="E44 E46 E38 E37 E35 E30 E29 E27 E20 E17 E15 E11 E9 E2 E0"/>
    </vehicle>
    <vehicle id="539" depart="215.60">
        <route edges="E22 E20 E17 E15 E11 E9"/>
    </vehicle>
    <vehicle id="540" depart="216.00">
        <route edges="E5 E10 E12 E16 E18 E19 E21 E28 E31 E32 E36 E39"/>
    </vehicle>
    <vehicle id="546" depart="218.40">
        <route edges="E10"/>
    </vehicle>
    <vehicle id="548" depart="219.20">
        <route edges="E56 E52 E50 E49 E47"/>
    </vehicle>
    <vehicle id="550" depart="220.00">
        <route edges="E32 E36 E39 E48 gneE22 E53 E57"/>
    </vehicle>
    <vehicle id="552" depart="220.80">
        <route edges="E40 E42 E38"/>
    </vehicle>
    <vehicle id="553" depart="221.20">
        <route edges="E8 E10 E12 E16 E18 E19 E21 E28 E31 E32 E36"/>
    </vehicle>
    <vehicle id="556" depart="222.40">
        <route edges="E56 E52 E50 E49 E47 E38 E37 E35 E30"/>
    </vehicle>
    <vehicle id="558" depart="223.20">
        <route edges="E22 E28 E31 E32 E34"/>
    </vehicle>
    <vehicle id="559" depart="223.60">
        <route edges="E33 E36 E39 E48 gneE22 E53 E57 E58"/>
    </vehicle>
    <vehicle id="561" depart="224.40">
        <route edges="E31 E32 E36 E39 E48 gneE22 E53 E57"/>
    </vehicle>
    <vehicle id="562" depart="224.80">
        <route edges="E13 E16 E18 E19 E21 E28 E31 E32 E36 E39 E41"/>
    </vehicle>
    <vehicle id="563" depart="225.20">
        <route edges="E13 E16 E18 E19 E21 E28 E31"/>
    </vehicle>
    <vehicle id="564" depart="225.60">
        <route edges="E18 E19 E21 E28 E31 E32 E36 E39"/>
    </vehicle>
    <vehicle id="568" depart="227.20">
        <route edges="E8 E10 E12 E16 E18 E19"/>
    </vehicle>
    <vehicle id="569" depart="227.60">
        <route edges="E26 E25 E20"/>
    </vehicle>
    <vehicle id="570" depart="228.00">
        <route edges="E54 E52 E50"/>
    </vehicle>
    <vehicle id="572" depart="228.80">
        <route edges="E42 E38 E37 E35 E30 E29 E27 E20 E17 E15 E14"/>
    </vehicle>
    <vehicle id="578" depart="231.20">
        <route edges="E35"/>
    </vehicle>
    <vehicle id="580" depart="232.00">
        <route edges="E4 E10 E12 E16 E18 E19 E21 E28 E31 E32 E36 E39 E45 E43"/>
    </vehicle>
    <vehicle id="581" depart="232.40">
        <route edges="E46 E48 gneE22 E53 E55"/>
    </vehicle>
    <vehicle id="582" depart="232.80">
        <route edges="E5 E2 E0"/>
    </vehicle>
    <vehicle id="584" depart="233.60">
        <route edges="E8 E10 E12 E16 E18 E19 E21 E28 E31 E32 E36 E39 E48"/>
    </vehicle>
    <vehicle id="585" depart="234.00">
        <route edges="E46 E48 gneE22 E53 E55"/>
    </vehicle>
    <vehicle id="586" depart="234.40">
        <route edges="E50 E49 E47 E38 E37 E35 E30 E29 E27 E20 E17 E15 E11 E9 E2"/>
    </vehicle>
    <vehicle id="588" depart="235.20">
        <route edges="E42 E38 E37 E35 E30 E29 E27 E20 E17"/>
    </vehicle>
    <vehicle id="590" depart="236.00">
        <route edges="E56 E52 E50 E49 E47 E38 E37"/>
    </vehicle>
    <vehicle id="596" depart="238.40">
        <route edges="E54 E52 E50 E49 E47 E38 E37 E35 E30"/>
    </vehicle>
    <vehicle id="603" depart="241.20">
        <route edges="E13 E11 E9"/>
    </vehicle>
    <vehicle id="605" depart="242.00">
        <route edges="E26 E25 E20 E17"/>
    </vehicle>
    <vehicle id="606" depart="242.40">
        <route edges="E54 E52 E50 E49 E47 E45"/>
    </vehicle>
    <vehicle id="611" depart="244.40">
        <route edges="E25 E28"/>
    </vehicle>
    <vehicle id="613" depart="245.20">
        <route edges="E8 E10 E12 E16 E18 E19 E21 E28 E31 E32 E36 E39 E48 gneE22 E53 E57 E58"/>
    </vehicle>
    <vehicle id="616" depart="246.40">
        <route edges="E42 E38 E37 E35 E30 E29 E27 E20 E17 E15 E11"/>
    </vehicle>
    <vehicle id="617" depart="246.80">
        <route edges="E12 E16 E18 E19 E21 E28 E31 E32 E36"/>
    </vehicle>
    <vehicle id="618" depart="247.20">
        <route edges="E22 E28 E31 E32 E36 E39 E48"/>
    </vehicle>
    <vehicle id="619" depart="247.60">
        <route edges="E39 E48 gneE22 E53 E57 E58"/>
    </vehicle>
    <vehicle id="622" depart="248.80">
        <route edges="E47 E45 E43"/>
    </vehicle>
    <vehicle id="623" depart="249.20">
        <route edges="E12 E14"/>
    </vehicle>
    <vehicle id="627" depart="250.80">
        <route edges="E52 E50 E49 E47 E38 E37 E35 E30 E29 E27 E20 E17 E15 E11"/>
    </vehicle>
    <vehicle id="629" depart="251.60">
        <route edges="E52"/>
    </vehicle>
    <vehicle id="630" depart="252.00">
        <route edges="E54 E57 E58"/>
    </vehicle>
    <vehicle id="631" depart="252.40">
        <route edges="E38 E37 E35 E30 E29 E27 E20 E17 E15 E11 E9 E6"/>
    </vehicle>
    <vehicle id="634" depart="253.60">
        <route edges="gneE22"/>
    </vehicle>
    <vehicle id="635" depart="254.00">
        <route edges="E44 E46 E38 E37 E35"/>
    </vehicle>
    <vehicle id="636" depart="254.40">
        <route edges="E22 E20 E17 E15"/>
    </vehicle>
    <vehicle id="637" depart="254.80">
        <route edges="E35 E30 E29 E27 E20 E17 E15 E11 E9 E7"/>
    </vehicle>
    <vehicle id="638" depart="255.20">
        <route edges="E4 E10 E12 E16 E18 E19 E21 E28 E31 E32 E36 E39 E48"/>
    </vehicle>
    <vehicle id="639" depart="255.60">
        <route edges="E30 E29 E27 E20 E17 E15 E11 E9 E6"/>
    </vehicle>
    <vehicle id="643" depart="257.20">
        <route edges="E10"/>
    </vehicle>
    <vehicle id="645" depart="258.00">
        <route edges="E44 E46 E38 E37 E35 E30 E29"/>
    </vehicle>
    <vehicle id="646" depart="258.40">
        <route edges="E5 E2 E0"/>
    </vehicle>
    <vehicle id="649" depart="259.60">
        <route edges="E30 E29 E27 E20 E17 E15 E11 E9 E6"/>
    </vehicle>
    <vehicle id="650" depart="260.00">
        <route edges="E46 E38 E37 E35 E30 E29 E27 E20 E17 E15 E14"/>
    </vehicle>
    <vehicle id="651" depart="260.40">
        <route edges="E40 E42 E38 E37 E35 E30 E29 E27 E23"/>
    </vehicle>
    <vehicle id="652" depart="260.80">
        <route edges="E46"/>
    </vehicle>
    <vehicle id="655" depart="262.00">
        <route edges="E16 E18"/>
    </vehicle>
    <vehicle id="656" depart="262.40">
        <route edges="E33 E30 E29 E27 E20 E17 E15 E11 E9 E2 E0"/>
    </vehicle>
    <vehicle id="657" depart="262.80">
        <route edges="E39 E48 gneE22 E53 E55"/>
    </vehicle>
    <vehicle id="658" depart="263.20">
        <route edges="E1 E4 E10 E12 E16 E18 E19 E21 E28 E31 E32 E36 E39 E45"/>
    </vehicle>
    <vehicle id="660" depart="264.00">
        <route edges="E56 E52 E50 E49"/>
    </vehicle>
    <vehicle id="662" depart="264.80">
        <route edges="E44 E46"/>
    </vehicle>
    <vehicle id="663" depart="265.20">
        <route edges="E16 E18 E19 E21 E28 E31 E32 E36 E39 E48 gneE22 E53"/>
    </vehicle>
    <vehicle id="664" depart="265.60">
        <route edges="E5 E10 E12"/>
    </vehicle>
    <vehicle id="666" depart="266.40">
        <route edges="E37 E35 E30 E29 E27 E20"/>
    </vehicle>
    <vehicle id="669" depart="267.60">