<?xml version="1.0" encoding="UTF-8"?>

<!-- generated on 2021-09-29 19:30:37 by Eclipse SUMO duarouter Version 1.9.2
<configuration xmlns:xsi="http://www.w3.org/2001/XMLSchema-instance" xsi:noNamespaceSchemaLocation="http://sumo.dlr.de/xsd/duarouterConfiguration.xsd">

    <input>
        <net-file value="/home/sonic/Desktop/nets/case03/intersection.net.xml"/>
        <route-files value="trips.trips.xml"/>
    </input>

    <output>
        <output-file value="intersection_random9.rou.xml"/>
        <alternatives-output value="intersection_random9.rou.alt.xml"/>
    </output>

    <time>
        <begin value="0"/>
        <end value="3600.0"/>
    </time>

    <report>
        <no-warnings value="true"/>
        <ignore-errors value="true"/>
        <no-step-log value="true"/>
    </report>

</configuration>
-->

<routes xmlns:xsi="http://www.w3.org/2001/XMLSchema-instance" xsi:noNamespaceSchemaLocation="http://sumo.dlr.de/xsd/routes_file.xsd">
    <vehicle id="7" depart="2.80">
        <route edges="-gneE3 gneE1"/>
    </vehicle>
    <vehicle id="9" depart="3.60">
        <route edges="-gneE12 -gneE9"/>
    </vehicle>
    <vehicle id="14" depart="5.60">
        <route edges="-gneE5 -gneE0 gneE1 gneE4 gneE9 gneE10"/>
    </vehicle>
    <vehicle id="15" depart="6.00">
        <route edges="-gneE5 -gneE0 gneE1 gneE4"/>
    </vehicle>
    <vehicle id="16" depart="6.40">
        <route edges="gneE12"/>
    </vehicle>
    <vehicle id="22" depart="8.80">
        <route edges="-gneE5 -gneE0 gneE1 gneE4"/>
    </vehicle>
    <vehicle id="31" depart="12.40">
        <route edges="gneE3"/>
    </vehicle>
    <vehicle id="33" depart="13.20">
        <route edges="-gneE13 -gneE10"/>
    </vehicle>
    <vehicle id="34" depart="13.60">
        <route edges="-gneE6 -gneE3 gneE0 gneE5"/>
    </vehicle>
    <vehicle id="37" depart="14.80">
        <route edges="-gneE16 -gneE12 gneE10 gneE13"/>
    </vehicle>
    <vehicle id="42" depart="16.80">
        <route edges="-gneE9"/>
    </vehicle>
    <vehicle id="46" depart="18.40">
        <route edges="-gneE1 gneE3"/>
    </vehicle>
    <vehicle id="47" depart="18.80">
        <route edges="-gneE4 -gneE1"/>
    </vehicle>
    <vehicle id="52" depart="20.80">
        <route edges="-gneE6 -gneE3 gneE0 gneE5"/>
    </vehicle>
    <vehicle id="53" depart="21.20">
        <route edges="-gneE6 -gneE3 gneE1 gneE4 gneE9 gneE11 gneE14"/>
    </vehicle>
    <vehicle id="54" depart="21.60">
        <route edges="-gneE3 gneE0 gneE5"/>
    </vehicle>
    <vehicle id="56" depart="22.40">
        <route edges="-gneE12 gneE10"/>
    </vehicle>
    <vehicle id="62" depart="24.80">
        <route edges="-gneE1 gneE3"/>
    </vehicle>
    <vehicle id="77" depart="30.80">
        <route edges="-gneE6 -gneE3 gneE1 gneE4 gneE9"/>
    </vehicle>
    <vehicle id="83" depart="33.20">
        <route edges="-gneE12 -gneE9 -gneE4 -gneE1 gneE3 gneE6"/>
    </vehicle>
    <vehicle id="86" depart="34.40">
        <route edges="-gneE12 -gneE9 -gneE4 -gneE1"/>
    </vehicle>
    <vehicle id="88" depart="35.20">
        <route edges="-gneE11 -gneE9 -gneE4 -gneE1"/>
    </vehicle>
    <vehicle id="91" depart="36.40">
        <route edges="-gneE3 gneE0"/>
    </vehicle>
    <vehicle id="97" depart="38.80">
        <route edges="gneE9"/>
    </vehicle>
    <vehicle id="98" depart="39.20">
        <route edges="-gneE1"/>
    </vehicle>
    <vehicle id="100" depart="40.00">
        <route edges="-gneE11"/>
    </vehicle>
    <vehicle id="102" depart="40.80">
        <route edges="-gneE7 -gneE2 gneE0"/>
    </vehicle>
    <vehicle id="105" depart="42.00">
        <route edges="-gneE0 gneE1"/>
    </vehicle>
    <vehicle id="106" depart="42.40">
        <route edges="-gneE6 -gneE3 gneE0 gneE5"/>
    </vehicle>
    <vehicle id="114" depart="45.60">
        <route edges="-gneE10 gneE12"/>
    </vehicle>
    <vehicle id="116" depart="46.40">
        <route edges="-gneE1 gneE3 gneE6"/>
    </vehicle>
    <vehicle id="118" depart="47.20">
        <route edges="-gneE11 gneE12 gneE16"/>
    </vehicle>
    <vehicle id="121" depart="48.40">
        <route edges="-gneE5 -gneE0 gneE1 gneE4 gneE9 gneE10"/>
    </vehicle>
    <vehicle id="124" depart="49.60">
        <route edges="-gneE3 gneE1 gneE4 gneE9"/>
    </vehicle>
    <vehicle id="127" depart="50.80">
        <route edges="-gneE3"/>
    </vehicle>
    <vehicle id="129" depart="51.60">
        <route edges="-gneE0 gneE1 gneE4 gneE9 gneE10 gneE13"/>
    </vehicle>
    <vehicle id="130" depart="52.00">
        <route edges="-gneE16 -gneE12 -gneE9 -gneE4"/>
    </vehicle>
    <vehicle id="132" depart="52.80">
        <route edges="-gneE12 -gneE9 -gneE4 -gneE1 gneE3"/>
    </vehicle>
    <vehicle id="140" depart="56.00">
        <route edges="-gneE12 -gneE9 -gneE4 -gneE1 gneE3"/>
    </vehicle>
    <vehicle id="142" depart="56.80">
        <route edges="-gneE4 -gneE1"/>
    </vehicle>
    <vehicle id="144" depart="57.60">
        <route edges="-gneE6 -gneE3 gneE1 gneE4 gneE9 gneE11 gneE14"/>
    </vehicle>
    <vehicle id="148" depart="59.20">
        <route edges="gneE1"/>
    </vehicle>
    <vehicle id="150" depart="60.00">
        <route edges="gneE4 gneE9 gneE11 gneE14"/>
    </vehicle>
    <vehicle id="151" depart="60.40">
        <route edges="gneE9 gneE11 gneE14"/>
    </vehicle>
    <vehicle id="154" depart="61.60">
        <route edges="-gneE13 -gneE10 gneE11"/>
    </vehicle>
    <vehicle id="157" depart="62.80">
        <route edges="-gneE0 gneE1 gneE4"/>
    </vehicle>
    <vehicle id="159" depart="63.60">
        <route edges="-gneE12 -gneE9 -gneE4"/>
    </vehicle>
    <vehicle id="168" depart="67.20">
        <route edges="-gneE11 -gneE9 -gneE4 -gneE1"/>
    </vehicle>
    <vehicle id="169" depart="67.60">
        <route edges="-gneE0 gneE1 gneE4 gneE9 gneE10 gneE13"/>
    </vehicle>
    <vehicle id="170" depart="68.00">
        <route edges="gneE0 gneE5"/>
    </vehicle>
    <vehicle id="172" depart="68.80">
        <route edges="-gneE10"/>
    </vehicle>
    <vehicle id="173" depart="69.20">
        <route edges="gneE11 gneE14"/>
    </vehicle>
    <vehicle id="174" depart="69.60">
        <route edges="gneE1 gneE4 gneE9"/>
    </vehicle>
    <vehicle id="175" depart="70.00">
        <route edges="-gneE5 -gneE0 gneE2 gneE7"/>
    </vehicle>
    <vehicle id="200" depart="80.00">
        <route edges="-gneE7 -gneE2 gneE0 gneE5"/>
    </vehicle>
    <vehicle id="201" depart="80.40">
        <route edges="gneE1 gneE4 gneE9"/>
    </vehicle>
    <vehicle id="205" depart="82.00">
        <route edges="-gneE10 gneE12 gneE16"/>
    </vehicle>
    <vehicle id="206" depart="82.40">
        <route edges="-gneE10 gneE11 gneE14"/>
    </vehicle>
    <vehicle id="212" depart="84.80">
        <route edges="-gneE11 -gneE9 -gneE4"/>
    </vehicle>
    <vehicle id="213" depart="85.20">
        <route edges="-gneE0 gneE1 gneE4 gneE9 gneE11 gneE14"/>
    </vehicle>
    <vehicle id="217" depart="86.80">
        <route edges="gneE9 gneE11 gneE14"/>
    </vehicle>
    <vehicle id="222" depart="88.80">
        <route edges="-gneE14 -gneE11 -gneE9 -gneE4 -gneE1 gneE3 gneE6"/>
    </vehicle>
    <vehicle id="228" depart="91.20">
        <route edges="-gneE6 -gneE3 gneE0"/>
    </vehicle>
    <vehicle id="244" depart="97.60">
        <route edges="-gneE12 -gneE9 -gneE4"/>
    </vehicle>
    <vehicle id="248" depart="99.20">
        <route edges="-gneE16 -gneE12 -gneE9 -gneE4 -gneE1"/>
    </vehicle>
    <vehicle id="251" depart="100.40">
        <route edges="gneE9 gneE11"/>
    </vehicle>
    <vehicle id="254" depart="101.60">
        <route edges="-gneE0 gneE2"/>
    </vehicle>
    <vehicle id="255" depart="102.00">
        <route edges="-gneE9 -gneE4 -gneE1 gneE3 gneE6"/>
    </vehicle>
    <vehicle id="256" depart="102.40">
        <route edges="-gneE14 -gneE11 -gneE9 -gneE4 -gneE1 gneE3"/>
    </vehicle>
    <vehicle id="261" depart="104.40">
        <route edges="-gneE2 gneE3"/>
    </vehicle>
    <vehicle id="266" depart="106.40">
        <route edges="gneE9 gneE11 gneE14"/>
    </vehicle>
    <vehicle id="269" depart="107.60">
        <route edges="-gneE11 -gneE9 -gneE4 -gneE1"/>
    </vehicle>
    <vehicle id="270" depart="108.00">
        <route edges="-gneE9"/>
    </vehicle>
    <vehicle id="275" depart="110.00">
        <route edges="-gneE14 -gneE11 -gneE9 -gneE4 -gneE1 gneE3"/>
    </vehicle>
    <vehicle id="277" depart="110.80">
        <route edges="-gneE1"/>
    </vehicle>
    <vehicle id="281" depart="112.40">
        <route edges="-gneE5 -gneE0 gneE1 gneE4 gneE9"/>
    </vehicle>
    <vehicle id="283" depart="113.20">
        <route edges="-gneE0 gneE1 gneE4 gneE9"/>
    </vehicle>
    <vehicle id="284" depart="113.60">
        <route edges="gneE1 gneE4 gneE9"/>
    </vehicle>
    <vehicle id="285" depart="114.00">
        <route edges="-gneE11 -gneE9 -gneE4 -gneE1 gneE2"/>
    </vehicle>
    <vehicle id="286" depart="114.40">
        <route edges="-gneE5 -gneE0 gneE1 gneE4 gneE9"/>
    </vehicle>
    <vehicle id="287" depart="114.80">
        <route edges="gneE0"/>
    </vehicle>
    <vehicle id="289" depart="115.60">
        <route edges="-gneE5 -gneE0 gneE1 gneE4 gneE9"/>
    </vehicle>
    <vehicle id="291" depart="116.40">
        <route edges="-gneE16 -gneE12 -gneE9 -gneE4 -gneE1 gneE3"/>
    </vehicle>
    <vehicle id="304" depart="121.60">
        <route edges="gneE9 gneE11 gneE14"/>
    </vehicle>
    <vehicle id="307" depart="122.80">
        <route edges="-gneE16 -gneE12 gneE10"/>
    </vehicle>
    <vehicle id="313" depart="125.20">
        <route edges="-gneE6 -gneE3"/>
    </vehicle>
    <vehicle id="317" depart="126.80">
        <route edges="-gneE13 -gneE10 gneE11 gneE14"/>
    </vehicle>
    <vehicle id="322" depart="128.80">
        <route edges="gneE4 gneE9 gneE11 gneE14"/>
    </vehicle>
    <vehicle id="324" depart="129.60">
        <route edges="-gneE6 -gneE3 gneE1 gneE4"/>
    </vehicle>
    <vehicle id="325" depart="130.00">
        <route edges="-gneE4 -gneE1"/>
    </vehicle>
    <vehicle id="328" depart="131.20">
        <route edges="-gneE9 -gneE4 -gneE1 gneE3"/>
    </vehicle>
    <vehicle id="329" depart="131.60">
        <route edges="-gneE14 -gneE11 -gneE9 -gneE4 -gneE1"/>
    </vehicle>
    <vehicle id="332" depart="132.80">
        <route edges="-gneE13 -gneE10 gneE12 gneE16"/>
    </vehicle>
    <vehicle id="336" depart="134.40">
        <route edges="-gneE5 -gneE0 gneE1 gneE4 gneE9"/>
    </vehicle>
    <vehicle id="337" depart="134.80">
        <route edges="-gneE5 -gneE0 gneE1 gneE4 gneE9"/>
    </vehicle>
    <vehicle id="339" depart="135.60">
        <route edges="-gneE6 -gneE3 gneE0 gneE5"/>
    </vehicle>
    <vehicle id="342" depart="136.80">
        <route edges="gneE1 gneE4 gneE9 gneE10 gneE13"/>
    </vehicle>
    <vehicle id="343" depart="137.20">
        <route edges="-gneE3"/>
    </vehicle>
    <vehicle id="346" depart="138.40">
        <route edges="-gneE12"/>
    </vehicle>
    <vehicle id="348" depart="139.20">
        <route edges="gneE2"/>
    </vehicle>
    <vehicle id="349" depart="139.60">
        <route edges="-gneE1"/>
    </vehicle>
    <vehicle id="353" depart="141.20">
        <route edges="gneE4"/>
    </vehicle>
    <vehicle id="354" depart="141.60">
        <route edges="-gneE11 -gneE9 -gneE4"/>
    </vehicle>
    <vehicle id="356" depart="142.40">
        <route edges="-gneE9 -gneE4 -gneE1 gneE2"/>
    </vehicle>
    <vehicle id="360" depart="144.00">
        <route edges="-gneE0 gneE1 gneE4 gneE9 gneE11"/>
    </vehicle>
    <vehicle id="364" depart="145.60">
        <route edges="-gneE9 -gneE4 -gneE1 gneE3"/>
    </vehicle>
    <vehicle id="366" depart="146.40">
        <route edges="-gneE0 gneE2 gneE7"/>
    </vehicle>
    <vehicle id="370" depart="148.00">
        <route edges="-gneE1 gneE3"/>
    </vehicle>
    <vehicle id="371" depart="148.40">
        <route edges="-gneE12 -gneE9 -gneE4 -gneE1 gneE2 gneE7"/>
    </vehicle>
    <vehicle id="375" depart="150.00">
        <route edges="-gneE14 -gneE11 -gneE9 -gneE4 -gneE1 gneE2"/>
    </vehicle>
    <vehicle id="384" depart="153.60">
        <route edges="-gneE0 gneE1 gneE4 gneE9"/>
    </vehicle>
    <vehicle id="390" depart="156.00">
        <route edges="-gneE12 -gneE9 -gneE4 -gneE1 gneE3 gneE6"/>
    </vehicle>
    <vehicle id="399" depart="159.60">
        <route edges="-gneE6 -gneE3 gneE0 gneE5"/>
    </vehicle>
    <vehicle id="402" depart="160.80">
        <route edges="-gneE16 -gneE12 -gneE9 -gneE4 -gneE1 gneE3 gneE6"/>
    </vehicle>
    <vehicle id="403" depart="161.20">
        <route edges="-gneE10"/>
    </vehicle>
    <vehicle id="412" depart="164.80">
        <route edges="-gneE0 gneE2"/>
    </vehicle>
    <vehicle id="417" depart="166.80">
        <route edges="-gneE0 gneE1 gneE4 gneE9"/>
    </vehicle>
    <vehicle id="422" depart="168.80">
        <route edges="-gneE4"/>
    </vehicle>
    <vehicle id="427" depart="170.80">
        <route edges="gneE4"/>
    </vehicle>
    <vehicle id="430" depart="172.00">
        <route edges="gneE1"/>
    </vehicle>
    <vehicle id="438" depart="175.20">
        <route edges="-gneE6 -gneE3 gneE1 gneE4 gneE9"/>
    </vehicle>
    <vehicle id="439" depart="175.60">
        <route edges="-gneE13 -gneE10 gneE12"/>
    </vehicle>
    <vehicle id="461" depart="184.40">
        <route edges="-gneE2"/>
    </vehicle>
    <vehicle id="462" depart="184.80">
        <route edges="-gneE2 gneE3 gneE6"/>
    </vehicle>
    <vehicle id="466" depart="186.40">
        <route edges="-gneE12 -gneE9 -gneE4 -gneE1 gneE2 gneE7"/>
    </vehicle>
    <vehicle id="470" depart="188.00">
        <route edges="-gneE12 -gneE9"/>
    </vehicle>
    <vehicle id="478" depart="191.20">
        <route edges="-gneE4 -gneE1 gneE3 gneE6"/>
    </vehicle>
    <vehicle id="480" depart="192.00">
        <route edges="-gneE3 gneE1 gneE4"/>
    </vehicle>
    <vehicle id="483" depart="193.20">
        <route edges="gneE1 gneE4 gneE9 gneE11"/>
    </vehicle>
    <vehicle id="487" depart="194.80">
        <route edges="-gneE9 -gneE4"/>
    </vehicle>
    <vehicle id="489" depart="195.60">
        <route edges="-gneE16 -gneE12 gneE10 gneE13"/>
    </vehicle>
    <vehicle id="496" depart="198.40">
        <route edges="-gneE12 -gneE9 -gneE4 -gneE1"/>
    </vehicle>
    <vehicle id="497" depart="198.80">
        <route edges="-gneE16 -gneE12"/>
    </vehicle>
    <vehicle id="500" depart="200.00">
        <route edges="gneE3 gneE6"/>
    </vehicle>
    <vehicle id="501" depart="200.40">
        <route edges="-gneE16 -gneE12 -gneE9 -gneE4 -gneE1 gneE3"/>
    </vehicle>
    <vehicle id="503" depart="201.20">
        <route edges="-gneE16 -gneE12 gneE10 gneE13"/>
    </vehicle>
    <vehicle id="504" depart="201.60">
        <route edges="-gneE7 -gneE2 gneE3 gneE6"/>
    </vehicle>
    <vehicle id="510" depart="204.00">
        <route edges="-gneE5 -gneE0"/>
    </vehicle>
    <vehicle id="514" depart="205.60">
        <route edges="gneE9 gneE11"/>
    </vehicle>
    <vehicle id="517" depart="206.80">
        <route edges="-gneE11 -gneE9 -gneE4 -gneE1 gneE2"/>
    </vehicle>
    <vehicle id="525" depart="210.00">
        <route edges="-gneE9 -gneE4 -gneE1 gneE3"/>
    </vehicle>
    <vehicle id="527" depart="210.80">
        <route edges="-gneE4 -gneE1 gneE2"/>
    </vehicle>
    <vehicle id="533" depart="213.20">
        <route edges="-gneE7 -gneE2 gneE3"/>
    </vehicle>
    <vehicle id="538" depart="215.20">
        <route edges="-gneE3 gneE1 gneE4 gneE9 gneE11"/>
    </vehicle>
    <vehicle id="547" depart="218.80">
        <route edges="gneE9 gneE10 gneE13"/>
    </vehicle>
    <vehicle id="550" depart="220.00">
        <route edges="-gneE14 -gneE11 -gneE9 -gneE4 -gneE1"/>
    </vehicle>
    <vehicle id="553" depart="221.20">
        <route edges="-gneE14 -gneE11 -gneE9 -gneE4 -gneE1 gneE3"/>
    </vehicle>
    <vehicle id="554" depart="221.60">
        <route edges="-gneE0 gneE2 gneE7"/>
    </vehicle>
    <vehicle id="565" depart="226.00">
        <route edges="-gneE9 -gneE4 -gneE1 gneE2 gneE7"/>
    </vehicle>
    <vehicle id="567" depart="226.80">
        <route edges="-gneE6 -gneE3 gneE1 gneE4 gneE9"/>
    </vehicle>
    <vehicle id="569" depart="227.60">
        <route edges="gneE9 gneE11"/>
    </vehicle>
    <vehicle id="570" depart="228.00">
        <route edges="-gneE5 -gneE0 gneE1 gneE4 gneE9 gneE11 gneE14"/>
    </vehicle>
    <vehicle id="571" depart="228.40">
        <route edges="-gneE3 gneE0 gneE5"/>
    </vehicle>
    <vehicle id="585" depart="234.00">
        <route edges="-gneE11 gneE12"/>
    </vehicle>
    <vehicle id="592" depart="236.80">
        <route edges="-gneE11 -gneE9 -gneE4 -gneE1 gneE3 gneE6"/>
    </vehicle>
    <vehicle id="595" depart="238.00">
        <route edges="gneE0"/>
    </vehicle>
    <vehicle id="597" depart="238.80">
        <route edges="-gneE3 gneE1 gneE4 gneE9 gneE10 gneE13"/>
    </vehicle>
    <vehicle id="601" depart="240.40">
        <route edges="-gneE3 gneE0 gneE5"/>
    </vehicle>
    <vehicle id="602" depart="240.80">
        <route edges="-gneE5 -gneE0"/>
    </vehicle>
    <vehicle id="607" depart="242.80">
        <route edges="-gneE2 gneE3 gneE6"/>
    </vehicle>
    <vehicle id="608" depart="243.20">
        <route edges="gneE1 gneE4 gneE9 gneE11"/>
    </vehicle>
    <vehicle id="611" depart="244.40">
        <route edges="-gneE5 -gneE0 gneE1 gneE4 gneE9 gneE11"/>
    </vehicle>
    <vehicle id="614" depart="245.60">
        <route edges="gneE12"/>
    </vehicle>
    <vehicle id="617" depart="246.80">
        <route edges="-gneE16 -gneE12 -gneE9 -gneE4 -gneE1 gneE3"/>
    </vehicle>
    <vehicle id="618" depart="247.20">
        <route edges="-gneE3"/>
    </vehicle>
    <vehicle id="621" depart="248.40">
        <route edges="-gneE4"/>
    </vehicle>
    <vehicle id="623" depart="249.20">
        <route edges="-gneE5 -gneE0 gneE1 gneE4 gneE9 gneE11 gneE14"/>
    </vehicle>
    <vehicle id="630" depart="252.00">
        <route edges="-gneE14 -gneE11 -gneE9 -gneE4"/>
    </vehicle>
    <vehicle id="634" depart="253.60">
        <route edges="-gneE6 -gneE3 gneE1 gneE4 gneE9 gneE10 gneE13"/>
    </vehicle>
    <vehicle id="640" depart="256.00">
        <route edges="-gneE16 -gneE12 gneE10"/>
    </vehicle>
    <vehicle id="642" depart="256.80">
        <route edges="-gneE12 -gneE9 -gneE4 -gneE1 gneE2 gneE7"/>
    </vehicle>
    <vehicle id="646" depart="258.40">
        <route edges="-gneE6 -gneE3 gneE1"/>
    </vehicle>
    <vehicle id="648" depart="259.20">
        <route edges="-gneE16 -gneE12 -gneE9"/>
    </vehicle>
    <vehicle id="656" depart="262.40">
        <route edges="-gneE9 -gneE4 -gneE1"/>
    </vehicle>
    <vehicle id="658" depart="263.20">
        <route edges="-gneE6 -gneE3 gneE1 gneE4 gneE9 gneE10 gneE13"/>
    </vehicle>
    <vehicle id="661" depart="264.40">
        <route edges="-gneE0 gneE1 gneE4 gneE9 gneE11 gneE14"/>
    </vehicle>
    <vehicle id="663" depart="265.20">
        <route edges="gneE9 gneE11 gneE14"/>
    </vehicle>
    <vehicle id="665" depart="266.00">
        <route edges="-gneE6 -gneE3 gneE1 gneE4 gneE9 gneE11"/>
    </vehicle>
    <vehicle id="667" depart="266.80">
        <route edges="gneE9 gneE11"/>
    </vehicle>
    <vehicle id="668" depart="267.20">
        <route edges="-gneE14 -gneE11 -gneE9 -gneE4 -gneE1 gneE3 gneE6"/>
    </vehicle>
    <vehicle id="689" depart="275.60">
        <route edges="-gneE5 -gneE0 gneE1"/>
    </vehicle>
    <vehicle id="690" depart="276.00">
        <route edges="-gneE4 -gneE1 gneE3 gneE6"/>
    </vehicle>
    <vehicle id="691" depart="276.40">
        <route edges="-gneE10 gneE12"/>
    </vehicle>
    <vehicle id="694" depart="277.60">
        <route edges="-gneE16 -gneE12 -gneE9 -gneE4 -gneE1 gneE2 gneE7"/>
    </vehicle>
    <vehicle id="698" depart="279.20">
        <route edges="-gneE3 gneE1"/>
    </vehicle>
    <vehicle id="699" depart="279.60">
        <route edges="-gneE13 -gneE10 gneE11"/>
    </vehicle>
    <vehicle id="714" depart="285.60">
        <route edges="-gneE10 gneE12 gneE16"/>
    </vehicle>
    <vehicle id="719" depart="287.60">
        <route edges="-gneE6 -gneE3 gneE1 gneE4 gneE9 gneE11"/>
    </vehicle>
    <vehicle id="724" depart="289.60">
        <route edges="-gneE0 gneE1 gneE4 gneE9 gneE10 gneE13"/>
    </vehicle>
    <vehicle id="726" depart="290.40">
        <route edges="-gneE6 -gneE3 gneE0 gneE5"/>
    </vehicle>
    <vehicle id="728" depart="291.20">
        <route edges="-gneE9 -gneE4 -gneE1 gneE2 gneE7"/>
    </vehicle>
    <vehicle id="733" depart="293.20">
        <route edges="gneE10"/>
    </vehicle>
    <vehicle id="734" depart="293.60">
        <route edges="-gneE14 -gneE11"/>
    </vehicle>
    <vehicle id="738" depart="295.20">
        <route edges="-gneE7 -gneE2 gneE0 gneE5"/>
    </vehicle>
    <vehicle id="741" depart="296.40">
        <route edges="-gneE1 gneE2 gneE7"/>
    </vehicle>
    <vehicle id="745" depart="298.00">
        <route edges="gneE1 gneE4 gneE9 gneE11 gneE14"/>
    </vehicle>
    <vehicle id="747" depart="298.80">
        <route edges="gneE4 gneE9 gneE10"/>
    </vehicle>
    <vehicle id="751" depart="300.40">
        <route edges="gneE1 gneE4 gneE9 gneE11 gneE14"/>
    </vehicle>
    <vehicle id="754" depart="301.60">
        <route edges="gneE4 gneE9 gneE11"/>
    </vehicle>
    <vehicle id="756" depart="302.40">
        <route edges="gneE9"/>
    </vehicle>
    <vehicle id="760" depart="304.00">
        <route edges="-gneE3 gneE1 gneE4"/>
    </vehicle>
    <vehicle id="761" depart="304.40">
        <route edges="-gneE3 gneE1 gneE4 gneE9"/>
    </vehicle>
    <vehicle id="764" depart="305.60">
        <route edges="-gneE3 gneE1 gneE4 gneE9 gneE10 gneE13"/>
    </vehicle>
    <vehicle id="768" depart="307.20">
        <route edges="-gneE3 gneE1 gneE4 gneE9 gneE10 gneE13"/>
    </vehicle>
    <vehicle id="772" depart="308.80">
        <route edges="-gneE7 -gneE2 gneE3"/>
    </vehicle>
    <vehicle id="773" depart="309.20">
        <route edges="-gneE16 -gneE12 -gneE9 -gneE4 -gneE1 gneE3"/>
    </vehicle>
    <vehicle id="776" depart="310.40">
        <route edges="-gneE11 -gneE9 -gneE4 -gneE1 gneE3 gneE6"/>
    </vehicle>
    <vehicle id="777" depart="310.80">
        <route edges="-gneE0 gneE1 gneE4 gneE9 gneE10 gneE13"/>
    </vehicle>
    <vehicle id="778" depart="311.20">
        <route edges="gneE0"/>
    </vehicle>
    <vehicle id="785" depart="314.00">
        <route edges="-gneE0 gneE1 gneE4 gneE9 gneE11 gneE14"/>
    </vehicle>
    <vehicle id="788" depart="315.20">
        <route edges="-gneE14 -gneE11 -gneE9"/>
    </vehicle>
    <vehicle id="795" depart="318.00">
        <route edges="gneE1 gneE4 gneE9"/>
    </vehicle>
    <vehicle id="803" depart="321.20">
        <route edges="-gneE9"/>
    </vehicle>
    <vehicle id="811" depart="324.40">
        <route edges="-gneE0 gneE1 gneE4 gneE9"/>
    </vehicle>
    <vehicle id="812" depart="324.80">
        <route edges="-gneE16 -gneE12 -gneE9 -gneE4"/>
    </vehicle>
    <vehicle id="820" depart="328.00">
        <route edges="gneE1 gneE4 gneE9"/>
    </vehicle>
    <vehicle id="824" depart="329.60">
        <route edges="gneE1 gneE4 gneE9 gneE11 gneE14"/>
    </vehicle>
    <vehicle id="832" depart="332.80">
        <route edges="-gneE11 -gneE9 -gneE4"/>
    </vehicle>
    <vehicle id="833" depart="333.20">
        <route edges="gneE4"/>
    </vehicle>
    <vehicle id="837" depart="334.80">
        <route edges="-gneE11 -gneE9 -gneE4"/>
    </vehicle>
    <vehicle id="838" depart="335.20">
        <route edges="gneE1 gneE4 gneE9 gneE10 gneE13"/>
    </vehicle>
    <vehicle id="840" depart="336.00">
        <route edges="-gneE12"/>
    </vehicle>
    <vehicle id="841" depart="336.40">
        <route edges="-gneE11 gneE12 gneE16"/>
    </vehicle>
    <vehicle id="843" depart="337.20">
        <route edges="gneE0 gneE5"/>
    </vehicle>
    <vehicle id="846" depart="338.40">
        <route edges="-gneE6 -gneE3 gneE1 gneE4 gneE9 gneE10"/>
    </vehicle>
    <vehicle id="852" depart="340.80">
        <route edges="gneE12"/>
    </vehicle>
    <vehicle id="854" depart="341.60">
        <route edges="-gneE5 -gneE0 gneE2 gneE7"/>
    </vehicle>
    <vehicle id="855" depart="342.00">
        <route edges="-gneE0 gneE1 gneE4"/>
    </vehicle>
    <vehicle id="857" depart="342.80">
        <route edges="-gneE5 -gneE0 gneE1 gneE4 gneE9 gneE11"/>
    </vehicle>
    <vehicle id="858" depart="343.20">
        <route edges="-gneE14 -gneE11 -gneE9 -gneE4 -gneE1 gneE3 gneE6"/>
    </vehicle>
    <vehicle id="860" depart="344.00">
        <route edges="-gneE0 gneE1 gneE4 gneE9 gneE11"/>
    </vehicle>
    <vehicle id="861" depart="344.40">
        <route edges="gneE1 gneE4 gneE9 gneE11 gneE14"/>
    </vehicle>
    <vehicle id="865" depart="346.00">
        <route edges="-gneE11 gneE12 gneE16"/>
    </vehicle>
    <vehicle id="870" depart="348.00">
        <route edges="-gneE16 -gneE12 -gneE9 -gneE4 -gneE1"/>
    </vehicle>
    <vehicle id="875" depart="350.00">
        <route edges="-gneE0 gneE1 gneE4 gneE9 gneE11 gneE14"/>
    </vehicle>
    <vehicle id="877" depart="350.80">
        <route edges="-gneE12 -gneE9 -gneE4 -gneE1 gneE2"/>
    </vehicle>
    <vehicle id="878" depart="351.20">
        <route edges="-gneE0 gneE1"/>
    </vehicle>
    <vehicle id="883" depart="353.20">
        <route edges="-gneE10 gneE11"/>
    </vehicle>
    <vehicle id="884" depart="353.60">
        <route edges="-gneE10 gneE12"/>
    </vehicle>
    <vehicle id="902" depart="360.80">
        <route edges="-gneE11 gneE12"/>
    </vehicle>
    <vehicle id="905" depart="362.00">
        <route edges="-gneE12"/>
    </vehicle>
    <vehicle id="906" depart="362.40">
        <route edges="-gneE9 -gneE4 -gneE1 gneE2"/>
    </vehicle>
    <vehicle id="907" depart="362.80">
        <route edges="-gneE11 gneE12 gneE16"/>
    </vehicle>
    <vehicle id="912" depart="364.80">
        <route edges="-gneE16 -gneE12 -gneE9 -gneE4 -gneE1 gneE2"/>
    </vehicle>
    <vehicle id="913" depart="365.20">
        <route edges="-gneE0 gneE1 gneE4 gneE9 gneE10 gneE13"/>
    </vehicle>
    <vehicle id="916" depart="366.40">
        <route edges="-gneE4 -gneE1"/>
    </vehicle>
    <vehicle id="920" depart="368.00">
        <route edges="-gneE6 -gneE3 gneE1 gneE4 gneE9 gneE10 gneE13"/>
    </vehicle>
    <vehicle id="921" depart="368.40">
        <route edges="-gneE16 -gneE12 -gneE9 -gneE4 -gneE1 gneE2 gneE7"/>
    </vehicle>
    <vehicle id="925" depart="370.00">
        <route edges="gneE4"/>
    </vehicle>
    <vehicle id="932" depart="372.80">
        <route edges="-gneE10 gneE11 gneE14"/>
    </vehicle>
    <vehicle id="933" depart="373.20">
        <route edges="-gneE13 -gneE10 gneE12 gneE16"/>
    </vehicle>
    <vehicle id="947" depart="378.80">
        <route edges="-gneE3 gneE0"/>
    </vehicle>
    <vehicle id="948" depart="379.20">
        <route edges="-gneE13 -gneE10 gneE12"/>
    </vehicle>
    <vehicle id="950" depart="380.00">
        <route edges="-gneE6 -gneE3 gneE0 gneE5"/>
    </vehicle>
    <vehicle id="951" depart="380.40">
        <route edges="-gneE16 -gneE12 -gneE9 -gneE4 -gneE1 gneE3"/>
    </vehicle>
    <vehicle id="956" depart="382.40">
        <route edges="-gneE14 -gneE11 gneE12 gneE16"/>
    </vehicle>
    <vehicle id="968" depart="387.20">
        <route edges="-gneE2 gneE3 gneE6"/>
    </vehicle>
    <vehicle id="969" depart="387.60">
        <route edges="-gneE6 -gneE3 gneE1 gneE4 gneE9 gneE10"/>
    </vehicle>
    <vehicle id="970" depart="388.00">
        <route edges="-gneE12 -gneE9 -gneE4 -gneE1 gneE2 gneE7"/>
    </vehicle>
    <vehicle id="973" depart="389.20">
        <route edges="-gneE5 -gneE0 gneE1 gneE4"/>
    </vehicle>
    <vehicle id="974" depart="389.60">
        <route edges="-gneE7 -gneE2 gneE0 gneE5"/>
    </vehicle>
    <vehicle id="978" depart="391.20">
        <route edges="-gneE12 -gneE9 -gneE4 -gneE1 gneE3"/>
    </vehicle>
    <vehicle id="987" depart="394.80">
        <route edges="-gneE0 gneE1"/>
    </vehicle>
    <vehicle id="990" depart="396.00">
        <route edges="-gneE16 -gneE12 gneE10 gneE13"/>
    </vehicle>
    <vehicle id="995" depart="398.00">
        <route edges="gneE1 gneE4 gneE9 gneE11 gneE14"/>
    </vehicle>
    <vehicle id="997" depart="398.80">
        <route edges="-gneE12 -gneE9 -gneE4"/>
    </vehicle>
    <vehicle id="998" depart="399.20">
        <route edges="-gneE11 -gneE9 -gneE4 -gneE1"/>
    </vehicle>
    <vehicle id="1010" depart="404.00">
        <route edges="-gneE14 -gneE11 -gneE9 -gneE4 -gneE1 gneE3 gneE6"/>
    </vehicle>
    <vehicle id="1015" depart="406.00">
        <route edges="gneE10"/>
    </vehicle>
    <vehicle id="1016" depart="406.40">
        <route edges="gneE11"/>
    </vehicle>
    <vehicle id="1017" depart="406.80">
        <route edges="gneE9 gneE10"/>
    </vehicle>
    <vehicle id="1019" depart="407.60">
        <route edges="-gneE7 -gneE2"/>
    </vehicle>
    <vehicle id="1022" depart="408.80">
        <route edges="-gneE11 -gneE9 -gneE4 -gneE1 gneE2 gneE7"/>
    </vehicle>
    <vehicle id="1023" depart="409.20">
        <route edges="gneE1 gneE4 gneE9 gneE10 gneE13"/>
    </vehicle>
    <vehicle id="1027" depart="410.80">
        <route edges="gneE1 gneE4 gneE9 gneE10 gneE13"/>
    </vehicle>
    <vehicle id="1028" depart="411.20">
        <route edges="-gneE14 -gneE11 -gneE9 -gneE4 -gneE1 gneE2 gneE7"/>
    </vehicle>
    <vehicle id="1033" depart="413.20">
        <route edges="gneE4 gneE9 gneE10"/>
    </vehicle>
    <vehicle id="1035" depart="414.00">
        <route edges="-gneE0 gneE2 gneE7"/>
    </vehicle>
    <vehicle id="1041" depart="416.40">
        <route edges="gneE4 gneE9 gneE10 gneE13"/>
    </vehicle>
    <vehicle id="1045" depart="418.00">
        <route edges="-gneE4 -gneE1"/>
    </vehicle>
    <vehicle id="1046" depart="418.40">
        <route edges="gneE3"/>
    </vehicle>