<?xml version="1.0" encoding="UTF-8"?>

<!-- generated on 2021-09-29 19:31:04 by Eclipse SUMO duarouter Version 1.9.2
<configuration xmlns:xsi="http://www.w3.org/2001/XMLSchema-instance" xsi:noNamespaceSchemaLocation="http://sumo.dlr.de/xsd/duarouterConfiguration.xsd">

    <input>
        <net-file value="/home/sonic/Desktop/nets/case03/intersection.net.xml"/>
        <route-files value="trips.trips.xml"/>
    </input>

    <output>
        <output-file value="intersection_random50.rou.xml"/>
        <alternatives-output value="intersection_random50.rou.alt.xml"/>
    </output>

    <time>
        <begin value="0"/>
        <end value="3600.0"/>
    </time>

    <report>
        <no-warnings value="true"/>
        <ignore-errors value="true"/>
        <no-step-log value="true"/>
    </report>

</configuration>
-->

<routes xmlns:xsi="http://www.w3.org/2001/XMLSchema-instance" xsi:noNamespaceSchemaLocation="http://sumo.dlr.de/xsd/routes_file.xsd">
    <vehicle id="2" depart="0.80">
        <route edges="gneE1 gneE4 gneE9 gneE11 gneE14"/>
    </vehicle>
    <vehicle id="9" depart="3.60">
        <route edges="-gneE12 gneE10"/>
    </vehicle>
    <vehicle id="15" depart="6.00">
        <route edges="-gneE5 -gneE0 gneE2"/>
    </vehicle>
    <vehicle id="17" depart="6.80">
        <route edges="-gneE3 gneE1 gneE4"/>
    </vehicle>
    <vehicle id="20" depart="8.00">
        <route edges="-gneE6 -gneE3 gneE1 gneE4 gneE9 gneE11 gneE14"/>
    </vehicle>
    <vehicle id="21" depart="8.40">
        <route edges="-gneE2 gneE0"/>
    </vehicle>
    <vehicle id="22" depart="8.80">
        <route edges="-gneE9 -gneE4 -gneE1 gneE2"/>
    </vehicle>
    <vehicle id="23" depart="9.20">
        <route edges="gneE4 gneE9 gneE11 gneE14"/>
    </vehicle>
    <vehicle id="33" depart="13.20">
        <route edges="-gneE5 -gneE0 gneE1 gneE4 gneE9 gneE10 gneE13"/>
    </vehicle>
    <vehicle id="34" depart="13.60">
        <route edges="-gneE6 -gneE3 gneE1 gneE4 gneE9 gneE11 gneE14"/>
    </vehicle>
    <vehicle id="42" depart="16.80">
        <route edges="-gneE9 -gneE4 -gneE1 gneE3 gneE6"/>
    </vehicle>
    <vehicle id="44" depart="17.60">
        <route edges="gneE4"/>
    </vehicle>
    <vehicle id="54" depart="21.60">
        <route edges="-gneE4"/>
    </vehicle>
    <vehicle id="58" depart="23.20">
        <route edges="-gneE12 -gneE9 -gneE4 -gneE1 gneE3 gneE6"/>
    </vehicle>
    <vehicle id="60" depart="24.00">
        <route edges="-gneE14 -gneE11 -gneE9 -gneE4 -gneE1 gneE3"/>
    </vehicle>
    <vehicle id="71" depart="28.40">
        <route edges="gneE9 gneE10"/>
    </vehicle>
    <vehicle id="98" depart="39.20">
        <route edges="-gneE14 -gneE11"/>
    </vehicle>
    <vehicle id="102" depart="40.80">
        <route edges="gneE9 gneE10 gneE13"/>
    </vehicle>
    <vehicle id="106" depart="42.40">
        <route edges="-gneE12 -gneE9 -gneE4 -gneE1"/>
    </vehicle>
    <vehicle id="111" depart="44.40">
        <route edges="-gneE9"/>
    </vehicle>
    <vehicle id="113" depart="45.20">
        <route edges="gneE0"/>
    </vehicle>
    <vehicle id="114" depart="45.60">
        <route edges="-gneE4 -gneE1 gneE3 gneE6"/>
    </vehicle>
    <vehicle id="120" depart="48.00">
        <route edges="-gneE3 gneE1 gneE4"/>
    </vehicle>
    <vehicle id="124" depart="49.60">
        <route edges="gneE1 gneE4 gneE9 gneE10 gneE13"/>
    </vehicle>
    <vehicle id="132" depart="52.80">
        <route edges="-gneE9 -gneE4 -gneE1 gneE2 gneE7"/>
    </vehicle>
    <vehicle id="133" depart="53.20">
        <route edges="gneE12"/>
    </vehicle>
    <vehicle id="136" depart="54.40">
        <route edges="-gneE4 -gneE1 gneE3 gneE6"/>
    </vehicle>
    <vehicle id="141" depart="56.40">
        <route edges="-gneE2 gneE0 gneE5"/>
    </vehicle>
    <vehicle id="142" depart="56.80">
        <route edges="gneE1 gneE4 gneE9 gneE11"/>
    </vehicle>
    <vehicle id="145" depart="58.00">
        <route edges="-gneE0 gneE1 gneE4"/>
    </vehicle>
    <vehicle id="149" depart="59.60">
        <route edges="gneE4 gneE9 gneE10 gneE13"/>
    </vehicle>
    <vehicle id="151" depart="60.40">
        <route edges="-gneE6 -gneE3 gneE1 gneE4 gneE9"/>
    </vehicle>
    <vehicle id="156" depart="62.40">
        <route edges="-gneE13 -gneE10 gneE12"/>
    </vehicle>
    <vehicle id="164" depart="65.60">
        <route edges="gneE11"/>
    </vehicle>
    <vehicle id="169" depart="67.60">
        <route edges="-gneE12 -gneE9 -gneE4 -gneE1"/>
    </vehicle>
    <vehicle id="171" depart="68.40">
        <route edges="gneE9 gneE11"/>
    </vehicle>
    <vehicle id="173" depart="69.20">
        <route edges="-gneE2"/>
    </vehicle>
    <vehicle id="175" depart="70.00">
        <route edges="-gneE14 -gneE11 -gneE9"/>
    </vehicle>
    <vehicle id="177" depart="70.80">
        <route edges="gneE1 gneE4 gneE9 gneE11 gneE14"/>
    </vehicle>
    <vehicle id="187" depart="74.80">
        <route edges="gneE11"/>
    </vehicle>
    <vehicle id="191" depart="76.40">
        <route edges="-gneE14 -gneE11 -gneE9 -gneE4 -gneE1 gneE2"/>
    </vehicle>
    <vehicle id="195" depart="78.00">
        <route edges="-gneE3 gneE1 gneE4 gneE9 gneE10"/>
    </vehicle>
    <vehicle id="201" depart="80.40">
        <route edges="-gneE10 gneE12 gneE16"/>
    </vehicle>
    <vehicle id="202" depart="80.80">
        <route edges="gneE9 gneE11"/>
    </vehicle>
    <vehicle id="203" depart="81.20">
        <route edges="-gneE5 -gneE0 gneE1 gneE4 gneE9"/>
    </vehicle>
    <vehicle id="204" depart="81.60">
        <route edges="-gneE3 gneE0 gneE5"/>
    </vehicle>
    <vehicle id="210" depart="84.00">
        <route edges="-gneE16 -gneE12 -gneE9 -gneE4"/>
    </vehicle>
    <vehicle id="213" depart="85.20">
        <route edges="-gneE9 -gneE4"/>
    </vehicle>
    <vehicle id="222" depart="88.80">
        <route edges="-gneE11 -gneE9 -gneE4"/>
    </vehicle>
    <vehicle id="224" depart="89.60">
        <route edges="-gneE0 gneE1 gneE4 gneE9 gneE10 gneE13"/>
    </vehicle>
    <vehicle id="225" depart="90.00">
        <route edges="-gneE5 -gneE0 gneE2"/>
    </vehicle>
    <vehicle id="232" depart="92.80">
        <route edges="-gneE5 -gneE0 gneE1 gneE4 gneE9"/>
    </vehicle>
    <vehicle id="233" depart="93.20">
        <route edges="-gneE12 -gneE9 -gneE4 -gneE1 gneE3"/>
    </vehicle>
    <vehicle id="250" depart="100.00">
        <route edges="-gneE2 gneE0 gneE5"/>
    </vehicle>
    <vehicle id="255" depart="102.00">
        <route edges="gneE11"/>
    </vehicle>
    <vehicle id="256" depart="102.40">
        <route edges="-gneE2 gneE3 gneE6"/>
    </vehicle>
    <vehicle id="259" depart="103.60">
        <route edges="-gneE14 -gneE11"/>
    </vehicle>
    <vehicle id="265" depart="106.00">
        <route edges="-gneE12 -gneE9 -gneE4 -gneE1 gneE2"/>
    </vehicle>
    <vehicle id="270" depart="108.00">
        <route edges="-gneE14 -gneE11 -gneE9 -gneE4 -gneE1"/>
    </vehicle>
    <vehicle id="272" depart="108.80">
        <route edges="-gneE12 -gneE9 -gneE4"/>
    </vehicle>
    <vehicle id="278" depart="111.20">
        <route edges="-gneE3 gneE1 gneE4 gneE9 gneE11"/>
    </vehicle>
    <vehicle id="280" depart="112.00">
        <route edges="gneE4 gneE9"/>
    </vehicle>
    <vehicle id="281" depart="112.40">
        <route edges="-gneE12 gneE10 gneE13"/>
    </vehicle>
    <vehicle id="285" depart="114.00">
        <route edges="-gneE9 -gneE4 -gneE1 gneE3"/>
    </vehicle>
    <vehicle id="289" depart="115.60">
        <route edges="-gneE2"/>
    </vehicle>
    <vehicle id="296" depart="118.40">
        <route edges="gneE9 gneE11 gneE14"/>
    </vehicle>
    <vehicle id="302" depart="120.80">
        <route edges="gneE2 gneE7"/>
    </vehicle>
    <vehicle id="303" depart="121.20">
        <route edges="-gneE13 -gneE10 gneE11"/>
    </vehicle>
    <vehicle id="305" depart="122.00">
        <route edges="-gneE6 -gneE3 gneE1 gneE4 gneE9 gneE10 gneE13"/>
    </vehicle>
    <vehicle id="314" depart="125.60">
        <route edges="-gneE1 gneE3"/>
    </vehicle>
    <vehicle id="315" depart="126.00">
        <route edges="gneE4 gneE9"/>
    </vehicle>
    <vehicle id="319" depart="127.60">
        <route edges="-gneE10"/>
    </vehicle>
    <vehicle id="330" depart="132.00">
        <route edges="-gneE10 gneE12 gneE16"/>
    </vehicle>
    <vehicle id="334" depart="133.60">
        <route edges="gneE1 gneE4"/>
    </vehicle>
    <vehicle id="342" depart="136.80">
        <route edges="-gneE16 -gneE12 -gneE9 -gneE4 -gneE1 gneE3"/>
    </vehicle>
    <vehicle id="344" depart="137.60">
        <route edges="-gneE5 -gneE0"/>
    </vehicle>
    <vehicle id="348" depart="139.20">
        <route edges="gneE10 gneE13"/>
    </vehicle>
    <vehicle id="350" depart="140.00">
        <route edges="gneE0"/>
    </vehicle>
    <vehicle id="351" depart="140.40">
        <route edges="-gneE9 -gneE4 -gneE1 gneE3"/>
    </vehicle>
    <vehicle id="355" depart="142.00">
        <route edges="-gneE16 -gneE12 gneE10 gneE13"/>
    </vehicle>
    <vehicle id="357" depart="142.80">
        <route edges="-gneE1 gneE2 gneE7"/>
    </vehicle>
    <vehicle id="364" depart="145.60">
        <route edges="-gneE9 -gneE4 -gneE1"/>
    </vehicle>
    <vehicle id="366" depart="146.40">
        <route edges="-gneE14 -gneE11 -gneE9 -gneE4 -gneE1 gneE2 gneE7"/>
    </vehicle>
    <vehicle id="369" depart="147.60">
        <route edges="-gneE7 -gneE2 gneE3"/>
    </vehicle>
    <vehicle id="371" depart="148.40">
        <route edges="-gneE4 -gneE1 gneE2"/>
    </vehicle>
    <vehicle id="373" depart="149.20">
        <route edges="-gneE9 -gneE4 -gneE1 gneE3 gneE6"/>
    </vehicle>
    <vehicle id="375" depart="150.00">
        <route edges="gneE1 gneE4 gneE9 gneE10 gneE13"/>
    </vehicle>
    <vehicle id="379" depart="151.60">
        <route edges="-gneE5 -gneE0"/>
    </vehicle>
    <vehicle id="381" depart="152.40">
        <route edges="-gneE9"/>
    </vehicle>
    <vehicle id="389" depart="155.60">
        <route edges="-gneE3 gneE1 gneE4 gneE9"/>
    </vehicle>
    <vehicle id="393" depart="157.20">
        <route edges="-gneE9 -gneE4 -gneE1"/>
    </vehicle>
    <vehicle id="397" depart="158.80">
        <route edges="-gneE5 -gneE0 gneE2"/>
    </vehicle>
    <vehicle id="399" depart="159.60">
        <route edges="-gneE6 -gneE3 gneE1 gneE4 gneE9 gneE10"/>
    </vehicle>
    <vehicle id="401" depart="160.40">
        <route edges="-gneE3 gneE1 gneE4 gneE9 gneE11 gneE14"/>
    </vehicle>
    <vehicle id="403" depart="161.20">
        <route edges="-gneE3 gneE1"/>
    </vehicle>
    <vehicle id="404" depart="161.60">
        <route edges="-gneE16 -gneE12"/>
    </vehicle>
    <vehicle id="406" depart="162.40">
        <route edges="-gneE0 gneE1 gneE4"/>
    </vehicle>
    <vehicle id="407" depart="162.80">
        <route edges="-gneE4 -gneE1 gneE2 gneE7"/>
    </vehicle>
    <vehicle id="417" depart="166.80">
        <route edges="-gneE5 -gneE0 gneE1"/>
    </vehicle>
    <vehicle id="426" depart="170.40">
        <route edges="-gneE2 gneE3"/>
    </vehicle>
    <vehicle id="429" depart="171.60">
        <route edges="-gneE14 -gneE11 gneE12"/>
    </vehicle>
    <vehicle id="432" depart="172.80">
        <route edges="gneE4"/>
    </vehicle>
    <vehicle id="438" depart="175.20">
        <route edges="gneE9 gneE10"/>
    </vehicle>
    <vehicle id="440" depart="176.00">
        <route edges="-gneE14 -gneE11 -gneE9 -gneE4 -gneE1 gneE2"/>
    </vehicle>
    <vehicle id="441" depart="176.40">
        <route edges="-gneE14 -gneE11 -gneE9 -gneE4 -gneE1"/>
    </vehicle>
    <vehicle id="448" depart="179.20">
        <route edges="-gneE1 gneE2"/>
    </vehicle>
    <vehicle id="451" depart="180.40">
        <route edges="-gneE6 -gneE3 gneE1 gneE4 gneE9 gneE10 gneE13"/>
    </vehicle>
    <vehicle id="459" depart="183.60">
        <route edges="-gneE10 gneE11"/>
    </vehicle>
    <vehicle id="472" depart="188.80">
        <route edges="-gneE6 -gneE3 gneE1 gneE4 gneE9 gneE10 gneE13"/>
    </vehicle>
    <vehicle id="479" depart="191.60">
        <route edges="-gneE14 -gneE11 -gneE9 -gneE4 -gneE1 gneE3"/>
    </vehicle>
    <vehicle id="487" depart="194.80">
        <route edges="-gneE11 -gneE9 -gneE4 -gneE1 gneE3 gneE6"/>
    </vehicle>
    <vehicle id="492" depart="196.80">
        <route edges="-gneE4 -gneE1 gneE2"/>
    </vehicle>
    <vehicle id="501" depart="200.40">
        <route edges="-gneE14 -gneE11 -gneE9 -gneE4 -gneE1 gneE3"/>
    </vehicle>
    <vehicle id="509" depart="203.60">
        <route edges="gneE2"/>
    </vehicle>
    <vehicle id="512" depart="204.80">
        <route edges="-gneE5 -gneE0"/>
    </vehicle>
    <vehicle id="514" depart="205.60">
        <route edges="-gneE12 gneE10"/>
    </vehicle>
    <vehicle id="516" depart="206.40">
        <route edges="-gneE10 gneE12"/>
    </vehicle>
    <vehicle id="517" depart="206.80">
        <route edges="gneE1 gneE4 gneE9"/>
    </vehicle>
    <vehicle id="518" depart="207.20">
        <route edges="-gneE11 gneE12 gneE16"/>
    </vehicle>
    <vehicle id="519" depart="207.60">
        <route edges="-gneE16 -gneE12 -gneE9 -gneE4"/>
    </vehicle>
    <vehicle id="524" depart="209.60">
        <route edges="-gneE16 -gneE12 -gneE9 -gneE4 -gneE1 gneE3 gneE6"/>
    </vehicle>
    <vehicle id="526" depart="210.40">
        <route edges="-gneE1"/>
    </vehicle>
    <vehicle id="537" depart="214.80">
        <route edges="-gneE9"/>
    </vehicle>
    <vehicle id="543" depart="217.20">
        <route edges="-gneE9 -gneE4"/>
    </vehicle>
    <vehicle id="545" depart="218.00">
        <route edges="-gneE12 -gneE9 -gneE4"/>
    </vehicle>
    <vehicle id="548" depart="219.20">
        <route edges="gneE9 gneE11"/>
    </vehicle>
    <vehicle id="550" depart="220.00">
        <route edges="-gneE10 gneE12 gneE16"/>
    </vehicle>
    <vehicle id="558" depart="223.20">
        <route edges="-gneE0"/>
    </vehicle>
    <vehicle id="563" depart="225.20">
        <route edges="-gneE3 gneE1 gneE4 gneE9 gneE11"/>
    </vehicle>
    <vehicle id="564" depart="225.60">
        <route edges="-gneE0 gneE2"/>
    </vehicle>
    <vehicle id="565" depart="226.00">
        <route edges="-gneE9 -gneE4"/>
    </vehicle>
    <vehicle id="566" depart="226.40">
        <route edges="-gneE6 -gneE3 gneE1 gneE4"/>
    </vehicle>
    <vehicle id="567" depart="226.80">
        <route edges="-gneE5 -gneE0"/>
    </vehicle>
    <vehicle id="573" depart="229.20">
        <route edges="-gneE6 -gneE3 gneE1"/>
    </vehicle>
    <vehicle id="576" depart="230.40">
        <route edges="-gneE5 -gneE0 gneE1 gneE4 gneE9"/>
    </vehicle>
    <vehicle id="583" depart="233.20">
        <route edges="gneE3 gneE6"/>
    </vehicle>
    <vehicle id="587" depart="234.80">
        <route edges="-gneE12"/>
    </vehicle>
    <vehicle id="595" depart="238.00">
        <route edges="gneE2 gneE7"/>
    </vehicle>
    <vehicle id="598" depart="239.20">
        <route edges="-gneE6 -gneE3 gneE0"/>
    </vehicle>
    <vehicle id="605" depart="242.00">
        <route edges="-gneE16 -gneE12 -gneE9 -gneE4 -gneE1 gneE3"/>
    </vehicle>
    <vehicle id="606" depart="242.40">
        <route edges="-gneE3 gneE1 gneE4 gneE9"/>
    </vehicle>
    <vehicle id="609" depart="243.60">
        <route edges="-gneE5 -gneE0 gneE1 gneE4 gneE9 gneE10"/>
    </vehicle>
    <vehicle id="612" depart="244.80">
        <route edges="gneE2"/>
    </vehicle>
    <vehicle id="616" depart="246.40">
        <route edges="-gneE0 gneE1 gneE4 gneE9 gneE11 gneE14"/>
    </vehicle>
    <vehicle id="625" depart="250.00">
        <route edges="-gneE12 -gneE9"/>
    </vehicle>
    <vehicle id="630" depart="252.00">
        <route edges="-gneE7 -gneE2 gneE0 gneE5"/>
    </vehicle>
    <vehicle id="631" depart="252.40">
        <route edges="-gneE3 gneE1"/>
    </vehicle>
    <vehicle id="635" depart="254.00">
        <route edges="-gneE13 -gneE10 gneE12 gneE16"/>
    </vehicle>
    <vehicle id="636" depart="254.40">
        <route edges="gneE1 gneE4 gneE9 gneE10"/>
    </vehicle>
    <vehicle id="637" depart="254.80">
        <route edges="-gneE10 gneE12 gneE16"/>
    </vehicle>
    <vehicle id="640" depart="256.00">
        <route edges="-gneE11 -gneE9 -gneE4 -gneE1 gneE2"/>
    </vehicle>
    <vehicle id="647" depart="258.80">
        <route edges="gneE1 gneE4"/>
    </vehicle>
    <vehicle id="648" depart="259.20">
        <route edges="-gneE5 -gneE0 gneE1"/>
    </vehicle>
    <vehicle id="651" depart="260.40">
        <route edges="-gneE5 -gneE0"/>
    </vehicle>
    <vehicle id="654" depart="261.60">
        <route edges="gneE12"/>
    </vehicle>
    <vehicle id="659" depart="263.60">
        <route edges="-gneE3 gneE1 gneE4 gneE9 gneE11 gneE14"/>
    </vehicle>
    <vehicle id="664" depart="265.60">
        <route edges="-gneE14 -gneE11"/>
    </vehicle>
    <vehicle id="665" depart="266.00">
        <route edges="-gneE16 -gneE12 -gneE9"/>
    </vehicle>
    <vehicle id="668" depart="267.20">
        <route edges="-gneE0 gneE1"/>
    </vehicle>
    <vehicle id="669" depart="267.60">
        <route edges="-gneE5 -gneE0 gneE1 gneE4 gneE9"/>
    </vehicle>
    <vehicle id="672" depart="268.80">
        <route edges="-gneE16 -gneE12 gneE10 gneE13"/>
    </vehicle>
    <vehicle id="683" depart="273.20">
        <route edges="-gneE9 -gneE4 -gneE1 gneE3 gneE6"/>
    </vehicle>
    <vehicle id="685" depart="274.00">
        <route edges="-gneE11 -gneE9 -gneE4 -gneE1 gneE3 gneE6"/>
    </vehicle>
    <vehicle id="686" depart="274.40">
        <route edges="-gneE0 gneE1 gneE4 gneE9 gneE11 gneE14"/>
    </vehicle>
    <vehicle id="691" depart="276.40">
        <route edges="-gneE11 -gneE9"/>
    </vehicle>
    <vehicle id="693" depart="277.20">
        <route edges="-gneE12 -gneE9"/>
    </vehicle>
    <vehicle id="694" depart="277.60">
        <route edges="-gneE13 -gneE10 gneE12 gneE16"/>
    </vehicle>
    <vehicle id="695" depart="278.00">
        <route edges="-gneE1 gneE3 gneE6"/>
    </vehicle>
    <vehicle id="697" depart="278.80">
        <route edges="gneE1 gneE4"/>
    </vehicle>
    <vehicle id="702" depart="280.80">
        <route edges="-gneE9 -gneE4"/>
    </vehicle>
    <vehicle id="704" depart="281.60">
        <route edges="-gneE16 -gneE12 -gneE9 -gneE4 -gneE1 gneE3"/>
    </vehicle>
    <vehicle id="707" depart="282.80">
        <route edges="-gneE13 -gneE10 gneE11"/>
    </vehicle>
    <vehicle id="713" depart="285.20">
        <route edges="-gneE4 -gneE1"/>
    </vehicle>
    <vehicle id="729" depart="291.60">
        <route edges="-gneE6 -gneE3 gneE1"/>
    </vehicle>
    <vehicle id="730" depart="292.00">
        <route edges="-gneE10 gneE11"/>
    </vehicle>
    <vehicle id="731" depart="292.40">
        <route edges="-gneE3 gneE1 gneE4 gneE9 gneE11"/>
    </vehicle>
    <vehicle id="733" depart="293.20">
        <route edges="gneE3"/>
    </vehicle>
    <vehicle id="734" depart="293.60">
        <route edges="gneE1 gneE4 gneE9 gneE11 gneE14"/>
    </vehicle>
    <vehicle id="735" depart="294.00">
        <route edges="-gneE3 gneE1 gneE4"/>
    </vehicle>
    <vehicle id="740" depart="296.00">
        <route edges="gneE1 gneE4 gneE9"/>
    </vehicle>
    <vehicle id="742" depart="296.80">
        <route edges="gneE9 gneE11"/>
    </vehicle>
    <vehicle id="745" depart="298.00">
        <route edges="-gneE14 -gneE11 -gneE9 -gneE4 -gneE1"/>
    </vehicle>
    <vehicle id="750" depart="300.00">
        <route edges="-gneE3 gneE1 gneE4 gneE9 gneE11 gneE14"/>
    </vehicle>
    <vehicle id="753" depart="301.20">
        <route edges="-gneE13 -gneE10 gneE12"/>
    </vehicle>
    <vehicle id="766" depart="306.40">
        <route edges="gneE3"/>
    </vehicle>
    <vehicle id="771" depart="308.40">
        <route edges="-gneE10 gneE12"/>
    </vehicle>
    <vehicle id="775" depart="310.00">
        <route edges="-gneE6 -gneE3 gneE1 gneE4"/>
    </vehicle>
    <vehicle id="788" depart="315.20">
        <route edges="gneE3 gneE6"/>
    </vehicle>
    <vehicle id="790" depart="316.00">
        <route edges="-gneE6 -gneE3"/>
    </vehicle>
    <vehicle id="801" depart="320.40">
        <route edges="gneE9 gneE10 gneE13"/>
    </vehicle>
    <vehicle id="806" depart="322.40">
        <route edges="gneE4 gneE9 gneE11 gneE14"/>
    </vehicle>
    <vehicle id="808" depart="323.20">
        <route edges="-gneE1 gneE2 gneE7"/>
    </vehicle>
    <vehicle id="817" depart="326.80">
        <route edges="-gneE9 -gneE4 -gneE1"/>
    </vehicle>
    <vehicle id="819" depart="327.60">
        <route edges="gneE1"/>
    </vehicle>
    <vehicle id="829" depart="331.60">
        <route edges="-gneE1 gneE2"/>
    </vehicle>
    <vehicle id="832" depart="332.80">
        <route edges="-gneE6 -gneE3 gneE1 gneE4 gneE9 gneE10"/>
    </vehicle>
    <vehicle id="837" depart="334.80">
        <route edges="-gneE13 -gneE10 gneE12"/>
    </vehicle>
    <vehicle id="840" depart="336.00">
        <route edges="-gneE9 -gneE4 -gneE1 gneE2 gneE7"/>
    </vehicle>
    <vehicle id="846" depart="338.40">
        <route edges="-gneE14 -gneE11"/>
    </vehicle>
    <vehicle id="849" depart="339.60">
        <route edges="-gneE1 gneE3 gneE6"/>
    </vehicle>
    <vehicle id="851" depart="340.40">
        <route edges="-gneE14 -gneE11 gneE12 gneE16"/>
    </vehicle>
    <vehicle id="853" depart="341.20">
        <route edges="-gneE11 -gneE9 -gneE4 -gneE1 gneE3"/>
    </vehicle>
    <vehicle id="856" depart="342.40">
        <route edges="-gneE13 -gneE10"/>
    </vehicle>
    <vehicle id="859" depart="343.60">
        <route edges="-gneE11 -gneE9 -gneE4 -gneE1"/>
    </vehicle>
    <vehicle id="869" depart="347.60">
        <route edges="-gneE0 gneE1 gneE4 gneE9"/>
    </vehicle>
    <vehicle id="880" depart="352.00">
        <route edges="gneE9 gneE10 gneE13"/>
    </vehicle>
    <vehicle id="885" depart="354.00">
        <route edges="-gneE7 -gneE2"/>
    </vehicle>
    <vehicle id="886" depart="354.40">
        <route edges="-gneE7 -gneE2 gneE3"/>
    </vehicle>
    <vehicle id="887" depart="354.80">
        <route edges="-gneE7 -gneE2 gneE3 gneE6"/>
    </vehicle>
    <vehicle id="888" depart="355.20">
        <route edges="-gneE6 -gneE3 gneE1 gneE4 gneE9 gneE10"/>
    </vehicle>
    <vehicle id="889" depart="355.60">
        <route edges="-gneE6 -gneE3 gneE0 gneE5"/>
    </vehicle>
    <vehicle id="890" depart="356.00">
        <route edges="gneE0"/>
    </vehicle>
    <vehicle id="895" depart="358.00">
        <route edges="-gneE0"/>
    </vehicle>
    <vehicle id="905" depart="362.00">
        <route edges="-gneE9 -gneE4 -gneE1 gneE2"/>
    </vehicle>
    <vehicle id="910" depart="364.00">
        <route edges="gneE1 gneE4 gneE9 gneE11"/>
    </vehicle>
    <vehicle id="912" depart="364.80">
        <route edges="-gneE14 -gneE11 -gneE9 -gneE4"/>
    </vehicle>
    <vehicle id="917" depart="366.80">
        <route edges="-gneE11 -gneE9 -gneE4 -gneE1 gneE3"/>
    </vehicle>
    <vehicle id="924" depart="369.60">
        <route edges="-gneE3 gneE1 gneE4 gneE9 gneE11"/>
    </vehicle>
    <vehicle id="926" depart="370.40">
        <route edges="gneE4 gneE9 gneE11 gneE14"/>
    </vehicle>
    <vehicle id="940" depart="376.00">
        <route edges="-gneE2"/>
    </vehicle>
    <vehicle id="942" depart="376.80">
        <route edges="-gneE5 -gneE0 gneE1 gneE4"/>
    </vehicle>
    <vehicle id="943" depart="377.20">
        <route edges="-gneE12 -gneE9 -gneE4 -gneE1 gneE3"/>
    </vehicle>
    <vehicle id="945" depart="378.00">
        <route edges="gneE12 gneE16"/>
    </vehicle>
    <vehicle id="946" depart="378.40">
        <route edges="gneE2"/>
    </vehicle>
    <vehicle id="950" depart="380.00">
        <route edges="gneE3"/>
    </vehicle>
    <vehicle id="957" depart="382.80">
        <route edges="-gneE5 -gneE0 gneE1 gneE4 gneE9 gneE10 gneE13"/>
    </vehicle>
    <vehicle id="958" depart="383.20">
        <route edges="-gneE2 gneE3"/>
    </vehicle>
    <vehicle id="964" depart="385.60">
        <route edges="-gneE5 -gneE0 gneE1 gneE4 gneE9 gneE10 gneE13"/>
    </vehicle>
    <vehicle id="965" depart="386.00">
        <route edges="-gneE11 -gneE9"/>
    </vehicle>
    <vehicle id="970" depart="388.00">
        <route edges="-gneE0 gneE1 gneE4 gneE9 gneE10 gneE13"/>
    </vehicle>
    <vehicle id="971" depart="388.40">
        <route edges="-gneE14 -gneE11 -gneE9 -gneE4"/>
    </vehicle>
    <vehicle id="972" depart="388.80">
        <route edges="-gneE3 gneE1 gneE4 gneE9"/>
    </vehicle>
    <vehicle id="974" depart="389.60">
        <route edges="-gneE10 gneE12"/>
    </vehicle>
    <vehicle id="975" depart="390.00">
        <route edges="-gneE12"/>
    </vehicle>
    <vehicle id="976" depart="390.40">
        <route edges="gneE10"/>
    </vehicle>
    <vehicle id="979" depart="391.60">
        <route edges="gneE4 gneE9 gneE11"/>
    </vehicle>
    <vehicle id="983" depart="393.20">
        <route edges="gneE4 gneE9"/>
    </vehicle>
    <vehicle id="984" depart="393.60">
        <route edges="-gneE0 gneE1 gneE4 gneE9 gneE11"/>
    </vehicle>
    <vehicle id="989" depart="395.60">
        <route edges="-gneE5 -gneE0 gneE2 gneE7"/>
    </vehicle>
    <vehicle id="992" depart="396.80">
        <route edges="-gneE7 -gneE2 gneE0 gneE5"/>
    </vehicle>
    <vehicle id="997" depart="398.80">
        <route edges="gneE12 gneE16"/>
    </vehicle>
    <vehicle id="1000" depart="400.00">
        <route edges="-gneE2 gneE3"/>
    </vehicle>
    <vehicle id="1003" depart="401.20">
        <route edges="-gneE11"/>
    </vehicle>
    <vehicle id="1011" depart="404.40">
        <route edges="-gneE6 -gneE3 gneE1 gneE4 gneE9 gneE10"/>
    </vehicle>
    <vehicle id="1013" depart="405.20">
        <route edges="gneE9 gneE11 gneE14"/>
    </vehicle>
    <vehicle id="1015" depart="406.00">
        <route edges="-gneE11 -gneE9 -gneE4 -gneE1"/>
    </vehicle>
    <vehicle id="1017" depart="406.80">
        <route edges="-gneE5 -gneE0 gneE1"/>
    </vehicle>
    <vehicle id="1018" depart="407.20">
        <route edges="-gneE11 -gneE9 -gneE4 -gneE1"/>
    </vehicle>
    <vehicle id="1022" depart="408.80">
        <route edges="gneE1 gneE4 gneE9 gneE11 gneE14"/>
    </vehicle>
    <vehicle id="1024" depart="409.60">
        <route edges="-gneE9 -gneE4 -gneE1 gneE2"/>
    </vehicle>
    <vehicle id="1028" depart="411.20">
        <route edges="-gneE4 -gneE1 gneE3 gneE6"/>
    </vehicle>
    <vehicle id="1034" depart="413.60">
        <route edges="-gneE14 -gneE11 gneE12 gneE16"/>
    </vehicle>
    <vehicle id="1035" depart="414.00">
        <route edges="-gneE2 gneE0"/>
    </vehicle>
    <vehicle id="1038" depart="415.20">
        <route edges="-gneE1 gneE3 gneE6"/>
    </vehicle>
    <vehicle id="1042" depart="416.80">
        <route edges="-gneE9 -gneE4 -gneE1 gneE3"/>
    </vehicle>
    <vehicle id="1045" depart="418.00">
        <route edges="-gneE12 -gneE9 -gneE4 -gneE1"/>
    </vehicle>
    <vehicle id="1048" depart="419.20">
        <route edges="-gneE6 -gneE3 gneE0 gneE5"/>
    </vehicle>
    <vehicle id="1056" depart="422.40">
        <route edges="-gneE5 -gneE0 gneE2 gneE7"/>
    </vehicle>
    <vehicle id="1058" depart="423.20">
        <route edges="gneE10"/>
    </vehicle>
    <vehicle id="1062" depart="424.80">
        <route edges="-gneE14 -gneE11 gneE12"/>
    </vehicle>
    <vehicle id="1064" depart="425.60">
        <route edges="-gneE14 -gneE11 -gneE9 -gneE4"/>
    </vehicle>
    <vehicle id="1065" depart="426.00">
        <route edges="-gneE11 -gneE9 -gneE4 -gneE1 gneE2"/>
    </vehicle>
    <vehicle id="1067" depart="426.80">
        <route edges="-gneE1 gneE3"/>
    </vehicle>
    <vehicle id="1070" depart="428.00">
        <route edges="-gneE16 -gneE12 -gneE9 -gneE4 -gneE1 gneE3 gneE6"/>
    </vehicle>
    <vehicle id="1072" depart="428.80">
        <route edges="-gneE5 -gneE0 gneE1 gneE4 gneE9 gneE10 gneE13"/>
    </vehicle>
    <vehicle id="1075" depart="430.00">
        <route edges="-gneE5 -gneE0 gneE1 gneE4 gneE9 gneE11"/>
    </vehicle>
    <vehicle id="1081" depart="432.40">
        <route edges="-gneE14 -gneE11 -gneE9"/>
    </vehicle>
    <vehicle id="1082" depart="432.80">
        <route edges="-gneE11 -gneE9 -gneE4 -gneE1 gneE2"/>
    </vehicle>
    <vehicle id="1086" depart="434.40">
        <route edges="gneE1 gneE4 gneE9 gneE11"/>
    </vehicle>
    <vehicle id="1087" depart="434.80">
        <route edges="-gneE5 -gneE0 gneE1"/>
    </vehicle>
    <vehicle id="1089" depart="435.60">
        <route edges="gneE11"/>
    </vehicle>
    <vehicle id="1094" depart="437.60">
        <route edges="-gneE11 -gneE9 -gneE4 -gneE1 gneE2 gneE7"/>
    </vehicle>
    <vehicle id="1103" depart="441.20">
        <route edges="-gneE12 gneE10"/>
    </vehicle>
    <vehicle id="1107" depart="442.80">
        <route edges="-gneE12 -gneE9"/>
    </vehicle>
    <vehicle id="1108" depart="443.20">
        <route edges="-gneE7 -gneE2"/>
    </vehicle>
    <vehicle id="1113" depart="445.20">
        <route edges="-gneE16 -gneE12"/>
    </vehicle>
    <vehicle id="1114" depart="445.60">
        <route edges="-gneE6 -gneE3 gneE1 gneE4 gneE9 gneE10 gneE13"/>
    </vehicle>
    <vehicle id="1118" depart="447.20">
        <route edges="-gneE6 -gneE3 gneE0 gneE5"/>
    </vehicle>
    <vehicle id="1121" depart="448.40">
        <route edges="-gneE6 -gneE3 gneE1 gneE4 gneE9 gneE11 gneE14"/>
    </vehicle>
    <vehicle id="1122" depart="448.80">
        <route edges="-gneE10 gneE12 gneE16"/>
    </vehicle>
    <vehicle id="1124" depart="449.60">
        <route edges="-gneE4 -gneE1 gneE3 gneE6"/>
    </vehicle>
    <vehicle id="1129" depart="451.60">
        <route edges="gneE3"/>
    </vehicle>
    <vehicle id="1132" depart="452.80">
        <route edges="-gneE6 -gneE3 gneE1 gneE4 gneE9 gneE10 gneE13"/>
    </vehicle>
    <vehicle id="1133" depart="453.20">
        <route edges="-gneE13 -gneE10"/>
    </vehicle>
    <vehicle id="1134" depart="453.60">
        <route edges="-gneE2"/>