<?xml version="1.0" encoding="UTF-8"?>

<!-- generated on 2021-09-29 19:30:50 by Eclipse SUMO duarouter Version 1.9.2
<configuration xmlns:xsi="http://www.w3.org/2001/XMLSchema-instance" xsi:noNamespaceSchemaLocation="http://sumo.dlr.de/xsd/duarouterConfiguration.xsd">

    <input>
        <net-file value="/home/sonic/Desktop/nets/case03/intersection.net.xml"/>
        <route-files value="trips.trips.xml"/>
    </input>

    <output>
        <output-file value="intersection_random36.rou.xml"/>
        <alternatives-output value="intersection_random36.rou.alt.xml"/>
    </output>

    <time>
        <begin value="0"/>
        <end value="3600.0"/>
    </time>

    <report>
        <no-warnings value="true"/>
        <ignore-errors value="true"/>
        <no-step-log value="true"/>
    </report>

</configuration>
-->

<routes xmlns:xsi="http://www.w3.org/2001/XMLSchema-instance" xsi:noNamespaceSchemaLocation="http://sumo.dlr.de/xsd/routes_file.xsd">
    <vehicle id="2" depart="0.80">
        <route edges="-gneE14 -gneE11 gneE12"/>
    </vehicle>
    <vehicle id="3" depart="1.20">
        <route edges="-gneE4 -gneE1 gneE2 gneE7"/>
    </vehicle>
    <vehicle id="7" depart="2.80">
        <route edges="-gneE11 -gneE9 -gneE4"/>
    </vehicle>
    <vehicle id="9" depart="3.60">
        <route edges="-gneE5 -gneE0 gneE1 gneE4 gneE9 gneE10 gneE13"/>
    </vehicle>
    <vehicle id="17" depart="6.80">
        <route edges="-gneE0 gneE1"/>
    </vehicle>
    <vehicle id="21" depart="8.40">
        <route edges="-gneE10"/>
    </vehicle>
    <vehicle id="25" depart="10.00">
        <route edges="-gneE12 -gneE9 -gneE4 -gneE1 gneE2"/>
    </vehicle>
    <vehicle id="32" depart="12.80">
        <route edges="-gneE7 -gneE2 gneE0 gneE5"/>
    </vehicle>
    <vehicle id="36" depart="14.40">
        <route edges="-gneE1 gneE3"/>
    </vehicle>
    <vehicle id="37" depart="14.80">
        <route edges="-gneE2 gneE3 gneE6"/>
    </vehicle>
    <vehicle id="40" depart="16.00">
        <route edges="-gneE0 gneE2 gneE7"/>
    </vehicle>
    <vehicle id="42" depart="16.80">
        <route edges="-gneE6 -gneE3 gneE1 gneE4 gneE9"/>
    </vehicle>
    <vehicle id="43" depart="17.20">
        <route edges="gneE1 gneE4 gneE9 gneE11 gneE14"/>
    </vehicle>
    <vehicle id="46" depart="18.40">
        <route edges="gneE1 gneE4"/>
    </vehicle>
    <vehicle id="47" depart="18.80">
        <route edges="-gneE16 -gneE12 gneE10 gneE13"/>
    </vehicle>
    <vehicle id="50" depart="20.00">
        <route edges="-gneE14 -gneE11 -gneE9"/>
    </vehicle>
    <vehicle id="61" depart="24.40">
        <route edges="-gneE3 gneE1 gneE4 gneE9"/>
    </vehicle>
    <vehicle id="64" depart="25.60">
        <route edges="-gneE10 gneE12"/>
    </vehicle>
    <vehicle id="67" depart="26.80">
        <route edges="gneE9 gneE10 gneE13"/>
    </vehicle>
    <vehicle id="69" depart="27.60">
        <route edges="-gneE14 -gneE11 -gneE9 -gneE4 -gneE1 gneE3"/>
    </vehicle>
    <vehicle id="71" depart="28.40">
        <route edges="-gneE5 -gneE0 gneE2"/>
    </vehicle>
    <vehicle id="74" depart="29.60">
        <route edges="-gneE5 -gneE0 gneE2"/>
    </vehicle>
    <vehicle id="81" depart="32.40">
        <route edges="-gneE14 -gneE11 -gneE9 -gneE4 -gneE1 gneE2"/>
    </vehicle>
    <vehicle id="85" depart="34.00">
        <route edges="-gneE10 gneE11"/>
    </vehicle>
    <vehicle id="86" depart="34.40">
        <route edges="-gneE16 -gneE12 -gneE9 -gneE4 -gneE1 gneE3 gneE6"/>
    </vehicle>
    <vehicle id="88" depart="35.20">
        <route edges="gneE11"/>
    </vehicle>
    <vehicle id="91" depart="36.40">
        <route edges="-gneE16 -gneE12 -gneE9"/>
    </vehicle>
    <vehicle id="95" depart="38.00">
        <route edges="-gneE2 gneE0"/>
    </vehicle>
    <vehicle id="101" depart="40.40">
        <route edges="-gneE6 -gneE3 gneE1 gneE4 gneE9 gneE10 gneE13"/>
    </vehicle>
    <vehicle id="104" depart="41.60">
        <route edges="-gneE11 -gneE9 -gneE4 -gneE1 gneE3 gneE6"/>
    </vehicle>
    <vehicle id="113" depart="45.20">
        <route edges="-gneE0 gneE1 gneE4 gneE9 gneE10 gneE13"/>
    </vehicle>
    <vehicle id="117" depart="46.80">
        <route edges="-gneE11 gneE12 gneE16"/>
    </vehicle>
    <vehicle id="118" depart="47.20">
        <route edges="gneE12 gneE16"/>
    </vehicle>
    <vehicle id="122" depart="48.80">
        <route edges="-gneE16 -gneE12 -gneE9 -gneE4 -gneE1 gneE3 gneE6"/>
    </vehicle>
    <vehicle id="124" depart="49.60">
        <route edges="gneE4 gneE9 gneE10"/>
    </vehicle>
    <vehicle id="131" depart="52.40">
        <route edges="gneE3"/>
    </vehicle>
    <vehicle id="132" depart="52.80">
        <route edges="-gneE9 -gneE4 -gneE1 gneE3 gneE6"/>
    </vehicle>
    <vehicle id="137" depart="54.80">
        <route edges="-gneE7 -gneE2 gneE3 gneE6"/>
    </vehicle>
    <vehicle id="138" depart="55.20">
        <route edges="gneE11"/>
    </vehicle>
    <vehicle id="146" depart="58.40">
        <route edges="-gneE6 -gneE3 gneE1 gneE4 gneE9 gneE10"/>
    </vehicle>
    <vehicle id="148" depart="59.20">
        <route edges="gneE1 gneE4 gneE9 gneE11"/>
    </vehicle>
    <vehicle id="154" depart="61.60">
        <route edges="gneE4 gneE9 gneE10"/>
    </vehicle>
    <vehicle id="163" depart="65.20">
        <route edges="-gneE0 gneE1 gneE4 gneE9 gneE10"/>
    </vehicle>
    <vehicle id="165" depart="66.00">
        <route edges="-gneE16 -gneE12 -gneE9 -gneE4 -gneE1 gneE2 gneE7"/>
    </vehicle>
    <vehicle id="168" depart="67.20">
        <route edges="-gneE5 -gneE0 gneE1"/>
    </vehicle>
    <vehicle id="169" depart="67.60">
        <route edges="-gneE9 -gneE4 -gneE1 gneE2"/>
    </vehicle>
    <vehicle id="171" depart="68.40">
        <route edges="-gneE5 -gneE0 gneE1 gneE4 gneE9 gneE10 gneE13"/>
    </vehicle>
    <vehicle id="172" depart="68.80">
        <route edges="-gneE2 gneE3 gneE6"/>
    </vehicle>
    <vehicle id="190" depart="76.00">
        <route edges="-gneE3 gneE1 gneE4 gneE9 gneE11"/>
    </vehicle>
    <vehicle id="191" depart="76.40">
        <route edges="-gneE16 -gneE12 -gneE9 -gneE4 -gneE1 gneE3 gneE6"/>
    </vehicle>
    <vehicle id="192" depart="76.80">
        <route edges="-gneE14 -gneE11 gneE12 gneE16"/>
    </vehicle>
    <vehicle id="197" depart="78.80">
        <route edges="-gneE4"/>
    </vehicle>
    <vehicle id="199" depart="79.60">
        <route edges="-gneE7 -gneE2 gneE0"/>
    </vehicle>
    <vehicle id="201" depart="80.40">
        <route edges="-gneE10"/>
    </vehicle>
    <vehicle id="203" depart="81.20">
        <route edges="-gneE13 -gneE10 gneE12 gneE16"/>
    </vehicle>
    <vehicle id="204" depart="81.60">
        <route edges="gneE2"/>
    </vehicle>
    <vehicle id="207" depart="82.80">
        <route edges="-gneE12"/>
    </vehicle>
    <vehicle id="209" depart="83.60">
        <route edges="-gneE10 gneE12"/>
    </vehicle>
    <vehicle id="218" depart="87.20">
        <route edges="gneE12"/>
    </vehicle>
    <vehicle id="219" depart="87.60">
        <route edges="-gneE9 -gneE4 -gneE1 gneE3"/>
    </vehicle>
    <vehicle id="222" depart="88.80">
        <route edges="gneE1 gneE4 gneE9 gneE10 gneE13"/>
    </vehicle>
    <vehicle id="230" depart="92.00">
        <route edges="gneE9 gneE11 gneE14"/>
    </vehicle>
    <vehicle id="233" depart="93.20">
        <route edges="-gneE5 -gneE0 gneE2"/>
    </vehicle>
    <vehicle id="240" depart="96.00">
        <route edges="-gneE7 -gneE2 gneE0"/>
    </vehicle>
    <vehicle id="241" depart="96.40">
        <route edges="-gneE6 -gneE3 gneE0 gneE5"/>
    </vehicle>
    <vehicle id="243" depart="97.20">
        <route edges="-gneE3 gneE0"/>
    </vehicle>
    <vehicle id="249" depart="99.60">
        <route edges="-gneE5 -gneE0 gneE2"/>
    </vehicle>
    <vehicle id="257" depart="102.80">
        <route edges="-gneE5 -gneE0 gneE1 gneE4 gneE9 gneE10 gneE13"/>
    </vehicle>
    <vehicle id="259" depart="103.60">
        <route edges="-gneE6 -gneE3 gneE1 gneE4"/>
    </vehicle>
    <vehicle id="260" depart="104.00">
        <route edges="-gneE14 -gneE11 -gneE9 -gneE4"/>
    </vehicle>
    <vehicle id="275" depart="110.00">
        <route edges="gneE0"/>
    </vehicle>
    <vehicle id="285" depart="114.00">
        <route edges="-gneE7 -gneE2 gneE0"/>
    </vehicle>
    <vehicle id="294" depart="117.60">
        <route edges="-gneE3 gneE1 gneE4"/>
    </vehicle>
    <vehicle id="301" depart="120.40">
        <route edges="-gneE7 -gneE2"/>
    </vehicle>
    <vehicle id="308" depart="123.20">
        <route edges="-gneE3 gneE1 gneE4 gneE9 gneE11 gneE14"/>
    </vehicle>
    <vehicle id="310" depart="124.00">
        <route edges="-gneE3 gneE1 gneE4"/>
    </vehicle>
    <vehicle id="318" depart="127.20">
        <route edges="gneE9 gneE10"/>
    </vehicle>
    <vehicle id="323" depart="129.20">
        <route edges="-gneE1 gneE2"/>
    </vehicle>
    <vehicle id="336" depart="134.40">
        <route edges="-gneE5 -gneE0 gneE1 gneE4 gneE9 gneE11"/>
    </vehicle>
    <vehicle id="344" depart="137.60">
        <route edges="-gneE7 -gneE2 gneE3"/>
    </vehicle>
    <vehicle id="348" depart="139.20">
        <route edges="gneE0 gneE5"/>
    </vehicle>
    <vehicle id="349" depart="139.60">
        <route edges="gneE9 gneE10"/>
    </vehicle>
    <vehicle id="352" depart="140.80">
        <route edges="-gneE5 -gneE0 gneE1 gneE4 gneE9"/>
    </vehicle>
    <vehicle id="353" depart="141.20">
        <route edges="gneE9 gneE10 gneE13"/>
    </vehicle>
    <vehicle id="366" depart="146.40">
        <route edges="-gneE9 -gneE4 -gneE1 gneE2"/>
    </vehicle>
    <vehicle id="373" depart="149.20">
        <route edges="-gneE7 -gneE2 gneE3"/>
    </vehicle>
    <vehicle id="374" depart="149.60">
        <route edges="-gneE6 -gneE3"/>
    </vehicle>
    <vehicle id="376" depart="150.40">
        <route edges="-gneE10 gneE11"/>
    </vehicle>
    <vehicle id="384" depart="153.60">
        <route edges="-gneE7 -gneE2 gneE0 gneE5"/>
    </vehicle>
    <vehicle id="390" depart="156.00">
        <route edges="-gneE3 gneE1 gneE4 gneE9 gneE10"/>
    </vehicle>
    <vehicle id="397" depart="158.80">
        <route edges="-gneE9 -gneE4 -gneE1"/>
    </vehicle>
    <vehicle id="401" depart="160.40">
        <route edges="-gneE4 -gneE1 gneE2"/>
    </vehicle>
    <vehicle id="402" depart="160.80">
        <route edges="-gneE9 -gneE4"/>
    </vehicle>
    <vehicle id="403" depart="161.20">
        <route edges="-gneE10"/>
    </vehicle>
    <vehicle id="405" depart="162.00">
        <route edges="-gneE16 -gneE12 -gneE9 -gneE4 -gneE1"/>
    </vehicle>
    <vehicle id="406" depart="162.40">
        <route edges="-gneE9 -gneE4 -gneE1 gneE3 gneE6"/>
    </vehicle>
    <vehicle id="410" depart="164.00">
        <route edges="gneE1 gneE4 gneE9 gneE11"/>
    </vehicle>
    <vehicle id="412" depart="164.80">
        <route edges="-gneE3"/>
    </vehicle>
    <vehicle id="417" depart="166.80">
        <route edges="gneE4"/>
    </vehicle>
    <vehicle id="421" depart="168.40">
        <route edges="-gneE3 gneE1"/>
    </vehicle>
    <vehicle id="423" depart="169.20">
        <route edges="gneE4 gneE9 gneE10 gneE13"/>
    </vehicle>
    <vehicle id="425" depart="170.00">
        <route edges="-gneE11 -gneE9 -gneE4 -gneE1 gneE3 gneE6"/>
    </vehicle>
    <vehicle id="431" depart="172.40">
        <route edges="gneE9 gneE11 gneE14"/>
    </vehicle>
    <vehicle id="432" depart="172.80">
        <route edges="-gneE4"/>
    </vehicle>
    <vehicle id="434" depart="173.60">
        <route edges="-gneE0 gneE2 gneE7"/>
    </vehicle>
    <vehicle id="435" depart="174.00">
        <route edges="-gneE16 -gneE12 -gneE9"/>
    </vehicle>
    <vehicle id="437" depart="174.80">
        <route edges="-gneE5 -gneE0 gneE1 gneE4 gneE9 gneE10"/>
    </vehicle>
    <vehicle id="439" depart="175.60">
        <route edges="gneE1 gneE4 gneE9 gneE10"/>
    </vehicle>
    <vehicle id="462" depart="184.80">
        <route edges="-gneE12 gneE10 gneE13"/>
    </vehicle>
    <vehicle id="466" depart="186.40">
        <route edges="-gneE11 -gneE9 -gneE4 -gneE1 gneE3"/>
    </vehicle>
    <vehicle id="467" depart="186.80">
        <route edges="gneE3 gneE6"/>
    </vehicle>
    <vehicle id="473" depart="189.20">
        <route edges="-gneE6 -gneE3 gneE1 gneE4 gneE9 gneE10"/>
    </vehicle>
    <vehicle id="474" depart="189.60">
        <route edges="-gneE11 -gneE9 -gneE4 -gneE1 gneE2"/>
    </vehicle>
    <vehicle id="477" depart="190.80">
        <route edges="-gneE6 -gneE3 gneE1 gneE4"/>
    </vehicle>
    <vehicle id="486" depart="194.40">
        <route edges="-gneE9 -gneE4 -gneE1 gneE2 gneE7"/>
    </vehicle>
    <vehicle id="488" depart="195.20">
        <route edges="-gneE5 -gneE0 gneE1 gneE4 gneE9 gneE10 gneE13"/>
    </vehicle>
    <vehicle id="494" depart="197.60">
        <route edges="-gneE14 -gneE11 -gneE9 -gneE4 -gneE1 gneE2 gneE7"/>
    </vehicle>
    <vehicle id="498" depart="199.20">
        <route edges="gneE1 gneE4 gneE9"/>
    </vehicle>
    <vehicle id="505" depart="202.00">
        <route edges="gneE2 gneE7"/>
    </vehicle>
    <vehicle id="509" depart="203.60">
        <route edges="-gneE7 -gneE2"/>
    </vehicle>
    <vehicle id="510" depart="204.00">
        <route edges="-gneE3 gneE1 gneE4 gneE9 gneE11 gneE14"/>
    </vehicle>
    <vehicle id="512" depart="204.80">
        <route edges="-gneE10 gneE12 gneE16"/>
    </vehicle>
    <vehicle id="515" depart="206.00">
        <route edges="-gneE11 -gneE9 -gneE4 -gneE1"/>
    </vehicle>
    <vehicle id="516" depart="206.40">
        <route edges="-gneE12 -gneE9"/>
    </vehicle>
    <vehicle id="518" depart="207.20">
        <route edges="gneE4 gneE9 gneE11"/>
    </vehicle>
    <vehicle id="522" depart="208.80">
        <route edges="-gneE14 -gneE11 -gneE9 -gneE4 -gneE1"/>
    </vehicle>
    <vehicle id="525" depart="210.00">
        <route edges="-gneE12 -gneE9 -gneE4 -gneE1 gneE3"/>
    </vehicle>
    <vehicle id="528" depart="211.20">
        <route edges="-gneE6 -gneE3 gneE1 gneE4 gneE9 gneE10 gneE13"/>
    </vehicle>
    <vehicle id="541" depart="216.40">
        <route edges="-gneE3 gneE1"/>
    </vehicle>
    <vehicle id="554" depart="221.60">
        <route edges="gneE1 gneE4 gneE9 gneE11"/>
    </vehicle>
    <vehicle id="555" depart="222.00">
        <route edges="gneE11"/>
    </vehicle>
    <vehicle id="556" depart="222.40">
        <route edges="-gneE1 gneE2"/>
    </vehicle>
    <vehicle id="558" depart="223.20">
        <route edges="-gneE11 gneE12"/>
    </vehicle>
    <vehicle id="568" depart="227.20">
        <route edges="-gneE16 -gneE12"/>
    </vehicle>
    <vehicle id="570" depart="228.00">
        <route edges="gneE12"/>
    </vehicle>
    <vehicle id="576" depart="230.40">
        <route edges="-gneE10 gneE11 gneE14"/>
    </vehicle>
    <vehicle id="583" depart="233.20">
        <route edges="gneE9 gneE11 gneE14"/>
    </vehicle>
    <vehicle id="584" depart="233.60">
        <route edges="-gneE5 -gneE0 gneE1 gneE4 gneE9"/>
    </vehicle>
    <vehicle id="585" depart="234.00">
        <route edges="gneE11 gneE14"/>
    </vehicle>
    <vehicle id="586" depart="234.40">
        <route edges="-gneE6 -gneE3 gneE1 gneE4"/>
    </vehicle>
    <vehicle id="587" depart="234.80">
        <route edges="-gneE6 -gneE3 gneE0 gneE5"/>
    </vehicle>
    <vehicle id="588" depart="235.20">
        <route edges="-gneE16 -gneE12 -gneE9 -gneE4"/>
    </vehicle>
    <vehicle id="591" depart="236.40">
        <route edges="gneE9"/>
    </vehicle>
    <vehicle id="592" depart="236.80">
        <route edges="-gneE4 -gneE1 gneE3"/>
    </vehicle>
    <vehicle id="605" depart="242.00">
        <route edges="-gneE1 gneE2"/>
    </vehicle>
    <vehicle id="606" depart="242.40">
        <route edges="-gneE10"/>
    </vehicle>
    <vehicle id="610" depart="244.00">
        <route edges="-gneE6 -gneE3 gneE1 gneE4 gneE9"/>
    </vehicle>
    <vehicle id="611" depart="244.40">
        <route edges="-gneE16 -gneE12"/>
    </vehicle>
    <vehicle id="614" depart="245.60">
        <route edges="-gneE2"/>
    </vehicle>
    <vehicle id="619" depart="247.60">
        <route edges="-gneE13 -gneE10 gneE11"/>
    </vehicle>
    <vehicle id="625" depart="250.00">
        <route edges="-gneE9 -gneE4 -gneE1"/>
    </vehicle>
    <vehicle id="627" depart="250.80">
        <route edges="-gneE13 -gneE10 gneE11"/>
    </vehicle>
    <vehicle id="629" depart="251.60">
        <route edges="-gneE0 gneE2 gneE7"/>
    </vehicle>
    <vehicle id="635" depart="254.00">
        <route edges="-gneE4 -gneE1 gneE2 gneE7"/>
    </vehicle>
    <vehicle id="636" depart="254.40">
        <route edges="-gneE16 -gneE12 gneE10 gneE13"/>
    </vehicle>
    <vehicle id="637" depart="254.80">
        <route edges="-gneE1"/>
    </vehicle>
    <vehicle id="642" depart="256.80">
        <route edges="gneE1 gneE4 gneE9 gneE10"/>
    </vehicle>
    <vehicle id="646" depart="258.40">
        <route edges="-gneE0 gneE2 gneE7"/>
    </vehicle>
    <vehicle id="649" depart="259.60">
        <route edges="-gneE12 gneE10 gneE13"/>
    </vehicle>
    <vehicle id="650" depart="260.00">
        <route edges="-gneE3 gneE0"/>
    </vehicle>
    <vehicle id="654" depart="261.60">
        <route edges="-gneE4 -gneE1 gneE2 gneE7"/>
    </vehicle>
    <vehicle id="658" depart="263.20">
        <route edges="-gneE10"/>
    </vehicle>
    <vehicle id="660" depart="264.00">
        <route edges="-gneE14 -gneE11 -gneE9 -gneE4 -gneE1"/>
    </vehicle>
    <vehicle id="662" depart="264.80">
        <route edges="-gneE5 -gneE0"/>
    </vehicle>
    <vehicle id="676" depart="270.40">
        <route edges="-gneE7 -gneE2 gneE0 gneE5"/>
    </vehicle>
    <vehicle id="677" depart="270.80">
        <route edges="-gneE0 gneE1 gneE4 gneE9 gneE10 gneE13"/>
    </vehicle>
    <vehicle id="679" depart="271.60">
        <route edges="-gneE2 gneE3 gneE6"/>
    </vehicle>
    <vehicle id="686" depart="274.40">
        <route edges="-gneE16 -gneE12"/>
    </vehicle>
    <vehicle id="687" depart="274.80">
        <route edges="-gneE12 gneE10"/>
    </vehicle>
    <vehicle id="688" depart="275.20">
        <route edges="gneE1 gneE4"/>
    </vehicle>
    <vehicle id="695" depart="278.00">
        <route edges="gneE9"/>
    </vehicle>
    <vehicle id="697" depart="278.80">
        <route edges="gneE0 gneE5"/>
    </vehicle>
    <vehicle id="701" depart="280.40">
        <route edges="gneE1"/>
    </vehicle>
    <vehicle id="704" depart="281.60">
        <route edges="-gneE6 -gneE3 gneE0 gneE5"/>
    </vehicle>
    <vehicle id="705" depart="282.00">
        <route edges="gneE1 gneE4 gneE9 gneE10"/>
    </vehicle>
    <vehicle id="707" depart="282.80">
        <route edges="-gneE4"/>
    </vehicle>
    <vehicle id="709" depart="283.60">
        <route edges="gneE4 gneE9 gneE10 gneE13"/>
    </vehicle>
    <vehicle id="710" depart="284.00">
        <route edges="gneE12"/>
    </vehicle>
    <vehicle id="713" depart="285.20">
        <route edges="gneE1 gneE4"/>
    </vehicle>
    <vehicle id="715" depart="286.00">
        <route edges="-gneE16 -gneE12 -gneE9 -gneE4 -gneE1 gneE2"/>
    </vehicle>
    <vehicle id="717" depart="286.80">
        <route edges="-gneE14 -gneE11"/>
    </vehicle>
    <vehicle id="718" depart="287.20">
        <route edges="-gneE0 gneE1"/>
    </vehicle>
    <vehicle id="721" depart="288.40">
        <route edges="gneE4"/>
    </vehicle>
    <vehicle id="737" depart="294.80">
        <route edges="gneE2 gneE7"/>
    </vehicle>
    <vehicle id="739" depart="295.60">
        <route edges="-gneE3 gneE1 gneE4 gneE9 gneE11 gneE14"/>
    </vehicle>
    <vehicle id="740" depart="296.00">
        <route edges="-gneE16 -gneE12 gneE10"/>
    </vehicle>
    <vehicle id="741" depart="296.40">
        <route edges="gneE4 gneE9 gneE10"/>
    </vehicle>
    <vehicle id="750" depart="300.00">
        <route edges="-gneE16 -gneE12 -gneE9 -gneE4 -gneE1 gneE2 gneE7"/>
    </vehicle>
    <vehicle id="755" depart="302.00">
        <route edges="-gneE14 -gneE11 -gneE9 -gneE4 -gneE1 gneE3 gneE6"/>
    </vehicle>
    <vehicle id="756" depart="302.40">
        <route edges="-gneE5 -gneE0 gneE1 gneE4"/>
    </vehicle>
    <vehicle id="758" depart="303.20">
        <route edges="-gneE16 -gneE12 gneE10 gneE13"/>
    </vehicle>
    <vehicle id="759" depart="303.60">
        <route edges="-gneE4 -gneE1 gneE2"/>
    </vehicle>
    <vehicle id="765" depart="306.00">
        <route edges="gneE2 gneE7"/>
    </vehicle>
    <vehicle id="770" depart="308.00">
        <route edges="gneE1 gneE4 gneE9 gneE10"/>
    </vehicle>
    <vehicle id="776" depart="310.40">
        <route edges="-gneE11 -gneE9 -gneE4 -gneE1 gneE2 gneE7"/>
    </vehicle>
    <vehicle id="777" depart="310.80">
        <route edges="-gneE1 gneE2"/>
    </vehicle>
    <vehicle id="778" depart="311.20">
        <route edges="-gneE5 -gneE0 gneE2 gneE7"/>
    </vehicle>
    <vehicle id="784" depart="313.60">
        <route edges="-gneE1 gneE3 gneE6"/>
    </vehicle>
    <vehicle id="786" depart="314.40">
        <route edges="-gneE14 -gneE11 gneE12"/>
    </vehicle>
    <vehicle id="789" depart="315.60">
        <route edges="-gneE11 -gneE9 -gneE4 -gneE1 gneE3 gneE6"/>
    </vehicle>
    <vehicle id="796" depart="318.40">
        <route edges="gneE11"/>
    </vehicle>
    <vehicle id="799" depart="319.60">
        <route edges="gneE9"/>
    </vehicle>
    <vehicle id="804" depart="321.60">
        <route edges="-gneE0 gneE1"/>
    </vehicle>
    <vehicle id="814" depart="325.60">
        <route edges="-gneE5 -gneE0 gneE1 gneE4 gneE9 gneE11 gneE14"/>
    </vehicle>
    <vehicle id="816" depart="326.40">
        <route edges="-gneE3 gneE1 gneE4 gneE9 gneE11"/>
    </vehicle>
    <vehicle id="822" depart="328.80">
        <route edges="-gneE16 -gneE12 -gneE9 -gneE4 -gneE1 gneE2"/>
    </vehicle>
    <vehicle id="825" depart="330.00">
        <route edges="-gneE2 gneE0"/>
    </vehicle>
    <vehicle id="827" depart="330.80">
        <route edges="gneE0"/>
    </vehicle>
    <vehicle id="828" depart="331.20">
        <route edges="-gneE0 gneE2"/>
    </vehicle>
    <vehicle id="829" depart="331.60">
        <route edges="gneE1 gneE4"/>
    </vehicle>
    <vehicle id="833" depart="333.20">
        <route edges="-gneE5 -gneE0 gneE1 gneE4 gneE9 gneE10"/>
    </vehicle>
    <vehicle id="835" depart="334.00">
        <route edges="-gneE2"/>
    </vehicle>
    <vehicle id="836" depart="334.40">
        <route edges="gneE0"/>
    </vehicle>
    <vehicle id="837" depart="334.80">
        <route edges="gneE9 gneE10"/>
    </vehicle>
    <vehicle id="842" depart="336.80">
        <route edges="-gneE2"/>
    </vehicle>
    <vehicle id="844" depart="337.60">
        <route edges="-gneE6 -gneE3 gneE1 gneE4 gneE9 gneE10 gneE13"/>
    </vehicle>
    <vehicle id="849" depart="339.60">
        <route edges="gneE1 gneE4"/>
    </vehicle>
    <vehicle id="853" depart="341.20">
        <route edges="-gneE5 -gneE0 gneE2 gneE7"/>
    </vehicle>
    <vehicle id="855" depart="342.00">
        <route edges="-gneE5 -gneE0 gneE1 gneE4 gneE9 gneE11"/>
    </vehicle>
    <vehicle id="868" depart="347.20">
        <route edges="-gneE5 -gneE0 gneE1 gneE4"/>
    </vehicle>
    <vehicle id="870" depart="348.00">
        <route edges="-gneE13 -gneE10 gneE12"/>
    </vehicle>
    <vehicle id="877" depart="350.80">
        <route edges="-gneE1 gneE3"/>
    </vehicle>
    <vehicle id="879" depart="351.60">
        <route edges="gneE9 gneE11"/>
    </vehicle>
    <vehicle id="880" depart="352.00">
        <route edges="-gneE9 -gneE4"/>
    </vehicle>
    <vehicle id="881" depart="352.40">
        <route edges="-gneE9 -gneE4 -gneE1 gneE3"/>
    </vehicle>
    <vehicle id="897" depart="358.80">
        <route edges="gneE9 gneE10"/>
    </vehicle>
    <vehicle id="899" depart="359.60">
        <route edges="-gneE3 gneE0"/>
    </vehicle>
    <vehicle id="903" depart="361.20">
        <route edges="-gneE12 -gneE9 -gneE4 -gneE1 gneE3"/>
    </vehicle>
    <vehicle id="904" depart="361.60">
        <route edges="-gneE3 gneE1 gneE4 gneE9"/>
    </vehicle>
    <vehicle id="907" depart="362.80">
        <route edges="-gneE5 -gneE0 gneE2"/>
    </vehicle>
    <vehicle id="911" depart="364.40">
        <route edges="-gneE16 -gneE12 -gneE9 -gneE4 -gneE1 gneE3 gneE6"/>
    </vehicle>
    <vehicle id="915" depart="366.00">
        <route edges="gneE3 gneE6"/>
    </vehicle>
    <vehicle id="916" depart="366.40">
        <route edges="-gneE5 -gneE0 gneE1 gneE4 gneE9 gneE10"/>
    </vehicle>
    <vehicle id="917" depart="366.80">
        <route edges="-gneE1 gneE3"/>
    </vehicle>
    <vehicle id="919" depart="367.60">
        <route edges="-gneE6 -gneE3 gneE1 gneE4 gneE9 gneE11 gneE14"/>
    </vehicle>
    <vehicle id="921" depart="368.40">
        <route edges="-gneE16 -gneE12 gneE10 gneE13"/>
    </vehicle>
    <vehicle id="922" depart="368.80">
        <route edges="gneE9 gneE11 gneE14"/>
    </vehicle>
    <vehicle id="924" depart="369.60">
        <route edges="-gneE5 -gneE0 gneE1 gneE4 gneE9 gneE11"/>
    </vehicle>
    <vehicle id="925" depart="370.00">
        <route edges="-gneE0 gneE1"/>
    </vehicle>
    <vehicle id="932" depart="372.80">
        <route edges="-gneE5 -gneE0 gneE2 gneE7"/>
    </vehicle>
    <vehicle id="933" depart="373.20">
        <route edges="-gneE16 -gneE12 -gneE9 -gneE4 -gneE1 gneE3 gneE6"/>
    </vehicle>
    <vehicle id="935" depart="374.00">
        <route edges="-gneE5 -gneE0 gneE1 gneE4"/>
    </vehicle>
    <vehicle id="940" depart="376.00">
        <route edges="-gneE6 -gneE3 gneE0 gneE5"/>
    </vehicle>
    <vehicle id="947" depart="378.80">
        <route edges="-gneE1 gneE3"/>
    </vehicle>
    <vehicle id="951" depart="380.40">
        <route edges="gneE4 gneE9 gneE10"/>
    </vehicle>
    <vehicle id="952" depart="380.80">
        <route edges="-gneE10"/>
    </vehicle>
    <vehicle id="960" depart="384.00">
        <route edges="gneE3 gneE6"/>
    </vehicle>
    <vehicle id="961" depart="384.40">
        <route edges="-gneE5 -gneE0 gneE1"/>
    </vehicle>
    <vehicle id="969" depart="387.60">
        <route edges="-gneE0 gneE1 gneE4 gneE9 gneE11"/>
    </vehicle>
    <vehicle id="976" depart="390.40">
        <route edges="gneE4 gneE9 gneE11 gneE14"/>
    </vehicle>
    <vehicle id="978" depart="391.20">
        <route edges="-gneE6 -gneE3 gneE1 gneE4 gneE9 gneE11 gneE14"/>
    </vehicle>
    <vehicle id="981" depart="392.40">
        <route edges="-gneE2 gneE3 gneE6"/>
    </vehicle>
    <vehicle id="983" depart="393.20">
        <route edges="-gneE3 gneE1 gneE4 gneE9 gneE10 gneE13"/>
    </vehicle>
    <vehicle id="987" depart="394.80">
        <route edges="-gneE16 -gneE12 -gneE9"/>
    </vehicle>
    <vehicle id="988" depart="395.20">
        <route edges="-gneE1 gneE2 gneE7"/>
    </vehicle>
    <vehicle id="997" depart="398.80">
        <route edges="-gneE3 gneE0 gneE5"/>
    </vehicle>
    <vehicle id="999" depart="399.60">
        <route edges="-gneE11 -gneE9 -gneE4 -gneE1 gneE3"/>
    </vehicle>
    <vehicle id="1001" depart="400.40">
        <route edges="-gneE12 -gneE9 -gneE4 -gneE1 gneE3"/>
    </vehicle>
    <vehicle id="1003" depart="401.20">
        <route edges="-gneE1"/>
    </vehicle>
    <vehicle id="1008" depart="403.20">
        <route edges="-gneE11 -gneE9 -gneE4 -gneE1 gneE3"/>
    </vehicle>
    <vehicle id="1017" depart="406.80">
        <route edges="-gneE16 -gneE12 gneE10 gneE13"/>
    </vehicle>
    <vehicle id="1018" depart="407.20">
        <route edges="-gneE14 -gneE11 -gneE9 -gneE4 -gneE1 gneE3"/>
    </vehicle>
    <vehicle id="1019" depart="407.60">
        <route edges="-gneE0 gneE1 gneE4 gneE9 gneE11 gneE14"/>
    </vehicle>
    <vehicle id="1020" depart="408.00">
        <route edges="-gneE16 -gneE12 -gneE9 -gneE4"/>
    </vehicle>
    <vehicle id="1023" depart="409.20">
        <route edges="-gneE1"/>
    </vehicle>
    <vehicle id="1025" depart="410.00">
        <route edges="-gneE9 -gneE4 -gneE1 gneE3"/>
    </vehicle>
    <vehicle id="1038" depart="415.20">
        <route edges="-gneE12 -gneE9 -gneE4"/>
    </vehicle>
    <vehicle id="1040" depart="416.00">
        <route edges="-gneE9 -gneE4 -gneE1 gneE3"/>
    </vehicle>
    <vehicle id="1048" depart="419.20">
        <route edges="-gneE3 gneE1 gneE4 gneE9 gneE10"/>
    </vehicle>
    <vehicle id="1051" depart="420.40">
        <route edges="-gneE6 -gneE3 gneE1 gneE4 gneE9 gneE11"/>
    </vehicle>
    <vehicle id="1052" depart="420.80">
        <route edges="-gneE0 gneE1 gneE4 gneE9 gneE10"/>
    </vehicle>
    <vehicle id="1054" depart="421.60">
        <route edges="-gneE9 -gneE4 -gneE1 gneE2 gneE7"/>
    </vehicle>
    <vehicle id="1055" depart="422.00">
        <route edges="-gneE3 gneE1"/>
    </vehicle>
    <vehicle id="1061" depart="424.40">
        <route edges="-gneE11 -gneE9 -gneE4 -gneE1 gneE2"/>
    </vehicle>
    <vehicle id="1062" depart="424.80">
        <route edges="gneE4 gneE9 gneE10 gneE13"/>
    </vehicle>
    <vehicle id="1068" depart="427.20">
        <route edges="-gneE6 -gneE3 gneE0"/>
    </vehicle>
    <vehicle id="1072" depart="428.80">
        <route edges="-gneE4 -gneE1 gneE3 gneE6"/>
    </vehicle>
    <vehicle id="1073" depart="429.20">
        <route edges="-gneE3 gneE1 gneE4 gneE9 gneE10"/>
    </vehicle>
    <vehicle id="1076" depart="430.40">
        <route edges="-gneE7 -gneE2 gneE3 gneE6"/>
    </vehicle>
    <vehicle id="1078" depart="431.20">
        <route edges="-gneE7 -gneE2 gneE0"/>
    </vehicle>
    <vehicle id="1079" depart="431.60">
        <route edges="-gneE3 gneE1 gneE4 gneE9 gneE11"/>
    </vehicle>
    <vehicle id="1080" depart="432.00">
        <route edges="-gneE13 -gneE10 gneE12"/>
    </vehicle>
    <vehicle id="1083" depart="433.20">
        <route edges="-gneE14 -gneE11 gneE12"/>
    </vehicle>
    <vehicle id="1085" depart="434.00">
        <route edges="-gneE11 -gneE9 -gneE4"/>
    </vehicle>