<?xml version="1.0" encoding="UTF-8"?>

<!-- generated on 2021-09-29 19:30:48 by Eclipse SUMO duarouter Version 1.9.2
<configuration xmlns:xsi="http://www.w3.org/2001/XMLSchema-instance" xsi:noNamespaceSchemaLocation="http://sumo.dlr.de/xsd/duarouterConfiguration.xsd">

    <input>
        <net-file value="/home/sonic/Desktop/nets/case03/intersection.net.xml"/>
        <route-files value="trips.trips.xml"/>
    </input>

    <output>
        <output-file value="intersection_random31.rou.xml"/>
        <alternatives-output value="intersection_random31.rou.alt.xml"/>
    </output>

    <time>
        <begin value="0"/>
        <end value="3600.0"/>
    </time>

    <report>
        <no-warnings value="true"/>
        <ignore-errors value="true"/>
        <no-step-log value="true"/>
    </report>

</configuration>
-->

<routes xmlns:xsi="http://www.w3.org/2001/XMLSchema-instance" xsi:noNamespaceSchemaLocation="http://sumo.dlr.de/xsd/routes_file.xsd">
    <vehicle id="1" depart="0.40">
        <route edges="gneE10 gneE13"/>
    </vehicle>
    <vehicle id="3" depart="1.20">
        <route edges="-gneE0"/>
    </vehicle>
    <vehicle id="6" depart="2.40">
        <route edges="-gneE11 -gneE9 -gneE4 -gneE1 gneE2 gneE7"/>
    </vehicle>
    <vehicle id="7" depart="2.80">
        <route edges="-gneE16 -gneE12 -gneE9 -gneE4 -gneE1 gneE3 gneE6"/>
    </vehicle>
    <vehicle id="13" depart="5.20">
        <route edges="-gneE0 gneE1 gneE4 gneE9 gneE10 gneE13"/>
    </vehicle>
    <vehicle id="21" depart="8.40">
        <route edges="-gneE14 -gneE11 gneE12 gneE16"/>
    </vehicle>
    <vehicle id="27" depart="10.80">
        <route edges="-gneE1 gneE3"/>
    </vehicle>
    <vehicle id="34" depart="13.60">
        <route edges="-gneE3 gneE1 gneE4 gneE9"/>
    </vehicle>
    <vehicle id="39" depart="15.60">
        <route edges="-gneE4 -gneE1 gneE3 gneE6"/>
    </vehicle>
    <vehicle id="44" depart="17.60">
        <route edges="-gneE12 gneE10 gneE13"/>
    </vehicle>
    <vehicle id="47" depart="18.80">
        <route edges="-gneE11 gneE12 gneE16"/>
    </vehicle>
    <vehicle id="48" depart="19.20">
        <route edges="-gneE9 -gneE4 -gneE1 gneE3 gneE6"/>
    </vehicle>
    <vehicle id="53" depart="21.20">
        <route edges="-gneE5 -gneE0 gneE1 gneE4 gneE9"/>
    </vehicle>
    <vehicle id="57" depart="22.80">
        <route edges="gneE12"/>
    </vehicle>
    <vehicle id="61" depart="24.40">
        <route edges="-gneE16 -gneE12 -gneE9 -gneE4 -gneE1"/>
    </vehicle>
    <vehicle id="64" depart="25.60">
        <route edges="-gneE3 gneE1 gneE4 gneE9"/>
    </vehicle>
    <vehicle id="68" depart="27.20">
        <route edges="gneE3 gneE6"/>
    </vehicle>
    <vehicle id="72" depart="28.80">
        <route edges="-gneE6 -gneE3"/>
    </vehicle>
    <vehicle id="76" depart="30.40">
        <route edges="gneE10 gneE13"/>
    </vehicle>
    <vehicle id="79" depart="31.60">
        <route edges="-gneE13 -gneE10 gneE11 gneE14"/>
    </vehicle>
    <vehicle id="82" depart="32.80">
        <route edges="gneE9"/>
    </vehicle>
    <vehicle id="86" depart="34.40">
        <route edges="-gneE16 -gneE12 gneE10 gneE13"/>
    </vehicle>
    <vehicle id="90" depart="36.00">
        <route edges="gneE11"/>
    </vehicle>
    <vehicle id="95" depart="38.00">
        <route edges="-gneE0"/>
    </vehicle>
    <vehicle id="97" depart="38.80">
        <route edges="-gneE4 -gneE1 gneE3"/>
    </vehicle>
    <vehicle id="102" depart="40.80">
        <route edges="-gneE5 -gneE0 gneE1 gneE4"/>
    </vehicle>
    <vehicle id="120" depart="48.00">
        <route edges="-gneE12 -gneE9 -gneE4 -gneE1 gneE2 gneE7"/>
    </vehicle>
    <vehicle id="126" depart="50.40">
        <route edges="-gneE0 gneE1 gneE4 gneE9 gneE11"/>
    </vehicle>
    <vehicle id="131" depart="52.40">
        <route edges="-gneE16 -gneE12 -gneE9 -gneE4"/>
    </vehicle>
    <vehicle id="141" depart="56.40">
        <route edges="-gneE4 -gneE1 gneE3"/>
    </vehicle>
    <vehicle id="144" depart="57.60">
        <route edges="gneE2"/>
    </vehicle>
    <vehicle id="152" depart="60.80">
        <route edges="gneE0 gneE5"/>
    </vehicle>
    <vehicle id="155" depart="62.00">
        <route edges="-gneE12 -gneE9"/>
    </vehicle>
    <vehicle id="156" depart="62.40">
        <route edges="gneE12"/>
    </vehicle>
    <vehicle id="158" depart="63.20">
        <route edges="-gneE1 gneE2"/>
    </vehicle>
    <vehicle id="177" depart="70.80">
        <route edges="gneE4 gneE9"/>
    </vehicle>
    <vehicle id="183" depart="73.20">
        <route edges="-gneE14 -gneE11 -gneE9"/>
    </vehicle>
    <vehicle id="185" depart="74.00">
        <route edges="-gneE2 gneE3 gneE6"/>
    </vehicle>
    <vehicle id="187" depart="74.80">
        <route edges="-gneE11 -gneE9"/>
    </vehicle>
    <vehicle id="198" depart="79.20">
        <route edges="-gneE11 -gneE9 -gneE4 -gneE1 gneE3 gneE6"/>
    </vehicle>
    <vehicle id="199" depart="79.60">
        <route edges="-gneE3 gneE0 gneE5"/>
    </vehicle>
    <vehicle id="200" depart="80.00">
        <route edges="-gneE11 -gneE9 -gneE4"/>
    </vehicle>
    <vehicle id="206" depart="82.40">
        <route edges="-gneE16 -gneE12 -gneE9 -gneE4 -gneE1 gneE2"/>
    </vehicle>
    <vehicle id="216" depart="86.40">
        <route edges="-gneE9 -gneE4 -gneE1 gneE2"/>
    </vehicle>
    <vehicle id="220" depart="88.00">
        <route edges="-gneE13 -gneE10 gneE12"/>
    </vehicle>
    <vehicle id="229" depart="91.60">
        <route edges="-gneE2 gneE3"/>
    </vehicle>
    <vehicle id="230" depart="92.00">
        <route edges="-gneE10"/>
    </vehicle>
    <vehicle id="231" depart="92.40">
        <route edges="-gneE2 gneE3 gneE6"/>
    </vehicle>
    <vehicle id="233" depart="93.20">
        <route edges="-gneE12 -gneE9 -gneE4 -gneE1 gneE3 gneE6"/>
    </vehicle>
    <vehicle id="239" depart="95.60">
        <route edges="-gneE5 -gneE0"/>
    </vehicle>
    <vehicle id="240" depart="96.00">
        <route edges="-gneE3 gneE1 gneE4 gneE9 gneE10"/>
    </vehicle>
    <vehicle id="242" depart="96.80">
        <route edges="gneE12 gneE16"/>
    </vehicle>
    <vehicle id="251" depart="100.40">
        <route edges="-gneE16 -gneE12"/>
    </vehicle>
    <vehicle id="252" depart="100.80">
        <route edges="gneE1"/>
    </vehicle>
    <vehicle id="253" depart="101.20">
        <route edges="-gneE12 -gneE9 -gneE4 -gneE1 gneE3"/>
    </vehicle>
    <vehicle id="255" depart="102.00">
        <route edges="-gneE12 -gneE9 -gneE4 -gneE1 gneE3 gneE6"/>
    </vehicle>
    <vehicle id="259" depart="103.60">
        <route edges="-gneE12 -gneE9 -gneE4 -gneE1 gneE2 gneE7"/>
    </vehicle>
    <vehicle id="262" depart="104.80">
        <route edges="gneE4 gneE9 gneE10 gneE13"/>
    </vehicle>
    <vehicle id="266" depart="106.40">
        <route edges="-gneE5 -gneE0 gneE1 gneE4 gneE9 gneE10"/>
    </vehicle>
    <vehicle id="270" depart="108.00">
        <route edges="-gneE16 -gneE12 gneE10 gneE13"/>
    </vehicle>
    <vehicle id="275" depart="110.00">
        <route edges="-gneE6 -gneE3 gneE1 gneE4 gneE9"/>
    </vehicle>
    <vehicle id="284" depart="113.60">
        <route edges="gneE4"/>
    </vehicle>
    <vehicle id="285" depart="114.00">
        <route edges="-gneE7 -gneE2 gneE0"/>
    </vehicle>
    <vehicle id="292" depart="116.80">
        <route edges="-gneE6 -gneE3 gneE1 gneE4"/>
    </vehicle>
    <vehicle id="299" depart="119.60">
        <route edges="-gneE5 -gneE0"/>
    </vehicle>
    <vehicle id="304" depart="121.60">
        <route edges="-gneE0 gneE1 gneE4 gneE9 gneE11 gneE14"/>
    </vehicle>
    <vehicle id="310" depart="124.00">
        <route edges="gneE1"/>
    </vehicle>
    <vehicle id="311" depart="124.40">
        <route edges="-gneE16 -gneE12 -gneE9 -gneE4 -gneE1 gneE3 gneE6"/>
    </vehicle>
    <vehicle id="316" depart="126.40">
        <route edges="-gneE1 gneE3"/>
    </vehicle>
    <vehicle id="322" depart="128.80">
        <route edges="-gneE9 -gneE4"/>
    </vehicle>
    <vehicle id="331" depart="132.40">
        <route edges="-gneE3"/>
    </vehicle>
    <vehicle id="339" depart="135.60">
        <route edges="-gneE14 -gneE11"/>
    </vehicle>
    <vehicle id="348" depart="139.20">
        <route edges="gneE4 gneE9 gneE10"/>
    </vehicle>
    <vehicle id="356" depart="142.40">
        <route edges="-gneE1 gneE2 gneE7"/>
    </vehicle>
    <vehicle id="362" depart="144.80">
        <route edges="gneE4 gneE9 gneE10 gneE13"/>
    </vehicle>
    <vehicle id="366" depart="146.40">
        <route edges="-gneE11 -gneE9 -gneE4 -gneE1 gneE2"/>
    </vehicle>
    <vehicle id="369" depart="147.60">
        <route edges="-gneE6 -gneE3 gneE1 gneE4 gneE9 gneE11 gneE14"/>
    </vehicle>
    <vehicle id="370" depart="148.00">
        <route edges="-gneE13 -gneE10 gneE11 gneE14"/>
    </vehicle>
    <vehicle id="371" depart="148.40">
        <route edges="-gneE14 -gneE11 gneE12 gneE16"/>
    </vehicle>
    <vehicle id="372" depart="148.80">
        <route edges="-gneE5 -gneE0 gneE1 gneE4 gneE9 gneE11 gneE14"/>
    </vehicle>
    <vehicle id="373" depart="149.20">
        <route edges="-gneE14 -gneE11 -gneE9 -gneE4 -gneE1 gneE2 gneE7"/>
    </vehicle>
    <vehicle id="375" depart="150.00">
        <route edges="-gneE11 -gneE9 -gneE4 -gneE1 gneE2 gneE7"/>
    </vehicle>
    <vehicle id="377" depart="150.80">
        <route edges="gneE9 gneE11"/>
    </vehicle>
    <vehicle id="379" depart="151.60">
        <route edges="-gneE11 -gneE9 -gneE4"/>
    </vehicle>
    <vehicle id="384" depart="153.60">
        <route edges="-gneE2"/>
    </vehicle>
    <vehicle id="387" depart="154.80">
        <route edges="-gneE4 -gneE1"/>
    </vehicle>
    <vehicle id="391" depart="156.40">
        <route edges="-gneE9 -gneE4 -gneE1 gneE3 gneE6"/>
    </vehicle>
    <vehicle id="392" depart="156.80">
        <route edges="-gneE6 -gneE3 gneE1 gneE4"/>
    </vehicle>
    <vehicle id="393" depart="157.20">
        <route edges="gneE4 gneE9 gneE11"/>
    </vehicle>
    <vehicle id="400" depart="160.00">
        <route edges="gneE10"/>
    </vehicle>
    <vehicle id="402" depart="160.80">
        <route edges="gneE1 gneE4 gneE9 gneE10 gneE13"/>
    </vehicle>
    <vehicle id="403" depart="161.20">
        <route edges="-gneE4 -gneE1 gneE3"/>
    </vehicle>
    <vehicle id="404" depart="161.60">
        <route edges="-gneE12 -gneE9 -gneE4 -gneE1 gneE3 gneE6"/>
    </vehicle>
    <vehicle id="405" depart="162.00">
        <route edges="-gneE14 -gneE11 -gneE9 -gneE4 -gneE1"/>
    </vehicle>
    <vehicle id="413" depart="165.20">
        <route edges="-gneE16 -gneE12 -gneE9"/>
    </vehicle>
    <vehicle id="421" depart="168.40">
        <route edges="gneE9 gneE11"/>
    </vehicle>
    <vehicle id="427" depart="170.80">
        <route edges="-gneE16 -gneE12 -gneE9 -gneE4 -gneE1 gneE2"/>
    </vehicle>
    <vehicle id="430" depart="172.00">
        <route edges="-gneE12 -gneE9 -gneE4 -gneE1 gneE2 gneE7"/>
    </vehicle>
    <vehicle id="434" depart="173.60">
        <route edges="gneE4 gneE9 gneE10 gneE13"/>
    </vehicle>
    <vehicle id="440" depart="176.00">
        <route edges="-gneE3 gneE1 gneE4 gneE9 gneE10 gneE13"/>
    </vehicle>
    <vehicle id="441" depart="176.40">
        <route edges="gneE10 gneE13"/>
    </vehicle>
    <vehicle id="443" depart="177.20">
        <route edges="-gneE2 gneE3"/>
    </vehicle>
    <vehicle id="446" depart="178.40">
        <route edges="gneE1 gneE4 gneE9 gneE11"/>
    </vehicle>
    <vehicle id="456" depart="182.40">
        <route edges="gneE4 gneE9 gneE11"/>
    </vehicle>
    <vehicle id="461" depart="184.40">
        <route edges="-gneE16 -gneE12"/>
    </vehicle>
    <vehicle id="462" depart="184.80">
        <route edges="-gneE1"/>
    </vehicle>
    <vehicle id="463" depart="185.20">
        <route edges="-gneE11 -gneE9 -gneE4 -gneE1 gneE3 gneE6"/>
    </vehicle>
    <vehicle id="467" depart="186.80">
        <route edges="-gneE16 -gneE12 -gneE9 -gneE4 -gneE1 gneE3 gneE6"/>
    </vehicle>
    <vehicle id="469" depart="187.60">
        <route edges="-gneE3 gneE1 gneE4 gneE9 gneE11 gneE14"/>
    </vehicle>
    <vehicle id="471" depart="188.40">
        <route edges="-gneE0 gneE2"/>
    </vehicle>
    <vehicle id="476" depart="190.40">
        <route edges="-gneE9 -gneE4 -gneE1 gneE3 gneE6"/>
    </vehicle>
    <vehicle id="477" depart="190.80">
        <route edges="-gneE16 -gneE12 -gneE9 -gneE4 -gneE1 gneE3"/>
    </vehicle>
    <vehicle id="478" depart="191.20">
        <route edges="gneE4 gneE9 gneE10"/>
    </vehicle>
    <vehicle id="479" depart="191.60">
        <route edges="gneE4 gneE9 gneE10 gneE13"/>
    </vehicle>
    <vehicle id="483" depart="193.20">
        <route edges="-gneE7 -gneE2 gneE3 gneE6"/>
    </vehicle>
    <vehicle id="484" depart="193.60">
        <route edges="-gneE7 -gneE2 gneE0 gneE5"/>
    </vehicle>
    <vehicle id="490" depart="196.00">
        <route edges="-gneE9 -gneE4"/>
    </vehicle>
    <vehicle id="495" depart="198.00">
        <route edges="-gneE2 gneE3 gneE6"/>
    </vehicle>
    <vehicle id="497" depart="198.80">
        <route edges="-gneE10 gneE12"/>
    </vehicle>
    <vehicle id="499" depart="199.60">
        <route edges="-gneE6 -gneE3 gneE1"/>
    </vehicle>
    <vehicle id="500" depart="200.00">
        <route edges="-gneE13 -gneE10 gneE11"/>
    </vehicle>
    <vehicle id="504" depart="201.60">
        <route edges="-gneE11 gneE12"/>
    </vehicle>
    <vehicle id="509" depart="203.60">
        <route edges="-gneE6 -gneE3 gneE1 gneE4 gneE9 gneE10 gneE13"/>
    </vehicle>
    <vehicle id="511" depart="204.40">
        <route edges="-gneE9 -gneE4 -gneE1 gneE3 gneE6"/>
    </vehicle>
    <vehicle id="513" depart="205.20">
        <route edges="-gneE0 gneE1"/>
    </vehicle>
    <vehicle id="519" depart="207.60">
        <route edges="-gneE11 -gneE9 -gneE4 -gneE1 gneE3 gneE6"/>
    </vehicle>
    <vehicle id="520" depart="208.00">
        <route edges="-gneE5 -gneE0 gneE2 gneE7"/>
    </vehicle>
    <vehicle id="521" depart="208.40">
        <route edges="-gneE10 gneE11 gneE14"/>
    </vehicle>
    <vehicle id="522" depart="208.80">
        <route edges="-gneE3 gneE0"/>
    </vehicle>
    <vehicle id="525" depart="210.00">
        <route edges="-gneE9 -gneE4 -gneE1 gneE3 gneE6"/>
    </vehicle>
    <vehicle id="531" depart="212.40">
        <route edges="-gneE10 gneE11"/>
    </vehicle>
    <vehicle id="536" depart="214.40">
        <route edges="-gneE13 -gneE10 gneE12 gneE16"/>
    </vehicle>
    <vehicle id="537" depart="214.80">
        <route edges="-gneE4 -gneE1 gneE2 gneE7"/>
    </vehicle>
    <vehicle id="538" depart="215.20">
        <route edges="-gneE4"/>
    </vehicle>
    <vehicle id="546" depart="218.40">
        <route edges="gneE3"/>
    </vehicle>
    <vehicle id="547" depart="218.80">
        <route edges="-gneE16 -gneE12 -gneE9"/>
    </vehicle>
    <vehicle id="562" depart="224.80">
        <route edges="-gneE6 -gneE3 gneE0"/>
    </vehicle>
    <vehicle id="564" depart="225.60">
        <route edges="-gneE12 -gneE9 -gneE4"/>
    </vehicle>
    <vehicle id="568" depart="227.20">
        <route edges="gneE3 gneE6"/>
    </vehicle>
    <vehicle id="569" depart="227.60">
        <route edges="-gneE2 gneE3"/>
    </vehicle>
    <vehicle id="570" depart="228.00">
        <route edges="gneE11"/>
    </vehicle>
    <vehicle id="578" depart="231.20">
        <route edges="-gneE16 -gneE12 gneE10 gneE13"/>
    </vehicle>
    <vehicle id="585" depart="234.00">
        <route edges="-gneE2 gneE0"/>
    </vehicle>
    <vehicle id="589" depart="235.60">
        <route edges="gneE9 gneE10"/>
    </vehicle>
    <vehicle id="590" depart="236.00">
        <route edges="gneE4 gneE9 gneE11"/>
    </vehicle>
    <vehicle id="607" depart="242.80">
        <route edges="-gneE5 -gneE0 gneE1 gneE4"/>
    </vehicle>
    <vehicle id="608" depart="243.20">
        <route edges="-gneE5 -gneE0 gneE2"/>
    </vehicle>
    <vehicle id="612" depart="244.80">
        <route edges="gneE1 gneE4"/>
    </vehicle>
    <vehicle id="613" depart="245.20">
        <route edges="-gneE7 -gneE2 gneE3 gneE6"/>
    </vehicle>
    <vehicle id="627" depart="250.80">
        <route edges="-gneE0 gneE2 gneE7"/>
    </vehicle>
    <vehicle id="628" depart="251.20">
        <route edges="-gneE16 -gneE12 -gneE9 -gneE4 -gneE1"/>
    </vehicle>
    <vehicle id="629" depart="251.60">
        <route edges="gneE0"/>
    </vehicle>
    <vehicle id="634" depart="253.60">
        <route edges="-gneE3 gneE1 gneE4 gneE9 gneE11 gneE14"/>
    </vehicle>
    <vehicle id="639" depart="255.60">
        <route edges="gneE1 gneE4 gneE9 gneE10 gneE13"/>
    </vehicle>
    <vehicle id="640" depart="256.00">
        <route edges="-gneE3 gneE1"/>
    </vehicle>
    <vehicle id="647" depart="258.80">
        <route edges="gneE4 gneE9 gneE11 gneE14"/>
    </vehicle>
    <vehicle id="652" depart="260.80">
        <route edges="gneE11 gneE14"/>
    </vehicle>
    <vehicle id="656" depart="262.40">
        <route edges="-gneE3"/>
    </vehicle>
    <vehicle id="658" depart="263.20">
        <route edges="-gneE13 -gneE10 gneE11"/>
    </vehicle>
    <vehicle id="662" depart="264.80">
        <route edges="-gneE16 -gneE12 -gneE9 -gneE4"/>
    </vehicle>
    <vehicle id="666" depart="266.40">
        <route edges="-gneE0 gneE2 gneE7"/>
    </vehicle>
    <vehicle id="675" depart="270.00">
        <route edges="gneE9 gneE11 gneE14"/>
    </vehicle>
    <vehicle id="684" depart="273.60">
        <route edges="-gneE6 -gneE3 gneE1 gneE4"/>
    </vehicle>
    <vehicle id="691" depart="276.40">
        <route edges="-gneE0 gneE1 gneE4 gneE9 gneE11"/>
    </vehicle>
    <vehicle id="692" depart="276.80">
        <route edges="-gneE16 -gneE12 gneE10"/>
    </vehicle>
    <vehicle id="696" depart="278.40">
        <route edges="-gneE9"/>
    </vehicle>
    <vehicle id="697" depart="278.80">
        <route edges="-gneE3 gneE1 gneE4 gneE9"/>
    </vehicle>
    <vehicle id="699" depart="279.60">
        <route edges="-gneE11 -gneE9 -gneE4 -gneE1 gneE3"/>
    </vehicle>
    <vehicle id="703" depart="281.20">
        <route edges="-gneE9 -gneE4 -gneE1 gneE2"/>
    </vehicle>
    <vehicle id="711" depart="284.40">
        <route edges="-gneE14 -gneE11 -gneE9"/>
    </vehicle>
    <vehicle id="719" depart="287.60">
        <route edges="-gneE16 -gneE12 gneE10"/>
    </vehicle>
    <vehicle id="722" depart="288.80">
        <route edges="gneE11 gneE14"/>
    </vehicle>
    <vehicle id="725" depart="290.00">
        <route edges="-gneE3 gneE1 gneE4 gneE9 gneE11"/>
    </vehicle>
    <vehicle id="735" depart="294.00">
        <route edges="-gneE9 -gneE4"/>
    </vehicle>
    <vehicle id="739" depart="295.60">
        <route edges="gneE9 gneE10 gneE13"/>
    </vehicle>
    <vehicle id="742" depart="296.80">
        <route edges="gneE1 gneE4 gneE9"/>
    </vehicle>
    <vehicle id="744" depart="297.60">
        <route edges="-gneE6 -gneE3 gneE1 gneE4 gneE9"/>
    </vehicle>
    <vehicle id="755" depart="302.00">
        <route edges="-gneE3 gneE0"/>
    </vehicle>
    <vehicle id="758" depart="303.20">
        <route edges="-gneE5 -gneE0 gneE1"/>
    </vehicle>
    <vehicle id="760" depart="304.00">
        <route edges="-gneE2"/>
    </vehicle>
    <vehicle id="763" depart="305.20">
        <route edges="-gneE4"/>
    </vehicle>
    <vehicle id="768" depart="307.20">
        <route edges="-gneE2 gneE0 gneE5"/>
    </vehicle>
    <vehicle id="771" depart="308.40">
        <route edges="-gneE3 gneE0"/>
    </vehicle>
    <vehicle id="778" depart="311.20">
        <route edges="-gneE1 gneE3"/>
    </vehicle>
    <vehicle id="779" depart="311.60">
        <route edges="gneE2"/>
    </vehicle>
    <vehicle id="787" depart="314.80">
        <route edges="-gneE5 -gneE0 gneE1 gneE4 gneE9 gneE11"/>
    </vehicle>
    <vehicle id="789" depart="315.60">
        <route edges="-gneE2 gneE0"/>
    </vehicle>
    <vehicle id="795" depart="318.00">
        <route edges="-gneE12 gneE10 gneE13"/>
    </vehicle>
    <vehicle id="797" depart="318.80">
        <route edges="-gneE12 -gneE9 -gneE4 -gneE1 gneE3 gneE6"/>
    </vehicle>
    <vehicle id="802" depart="320.80">
        <route edges="-gneE3"/>
    </vehicle>
    <vehicle id="812" depart="324.80">
        <route edges="-gneE6 -gneE3 gneE1 gneE4 gneE9 gneE11"/>
    </vehicle>
    <vehicle id="813" depart="325.20">
        <route edges="-gneE11 -gneE9 -gneE4"/>
    </vehicle>
    <vehicle id="814" depart="325.60">
        <route edges="-gneE12 -gneE9 -gneE4 -gneE1"/>
    </vehicle>
    <vehicle id="815" depart="326.00">
        <route edges="gneE10 gneE13"/>
    </vehicle>
    <vehicle id="816" depart="326.40">
        <route edges="-gneE14 -gneE11 -gneE9"/>
    </vehicle>
    <vehicle id="819" depart="327.60">
        <route edges="-gneE3 gneE1 gneE4 gneE9 gneE10"/>
    </vehicle>
    <vehicle id="820" depart="328.00">
        <route edges="-gneE6 -gneE3 gneE1"/>
    </vehicle>
    <vehicle id="821" depart="328.40">
        <route edges="-gneE14 -gneE11 -gneE9 -gneE4"/>
    </vehicle>
    <vehicle id="827" depart="330.80">
        <route edges="-gneE2 gneE3 gneE6"/>
    </vehicle>
    <vehicle id="833" depart="333.20">
        <route edges="-gneE5 -gneE0 gneE2"/>
    </vehicle>
    <vehicle id="835" depart="334.00">
        <route edges="-gneE3 gneE1 gneE4 gneE9"/>
    </vehicle>
    <vehicle id="836" depart="334.40">
        <route edges="-gneE2"/>
    </vehicle>
    <vehicle id="839" depart="335.60">
        <route edges="gneE1 gneE4 gneE9 gneE10"/>
    </vehicle>
    <vehicle id="841" depart="336.40">
        <route edges="gneE9 gneE10 gneE13"/>
    </vehicle>
    <vehicle id="844" depart="337.60">
        <route edges="-gneE6 -gneE3 gneE1"/>
    </vehicle>
    <vehicle id="852" depart="340.80">
        <route edges="gneE1 gneE4 gneE9 gneE10"/>
    </vehicle>
    <vehicle id="863" depart="345.20">
        <route edges="-gneE6 -gneE3 gneE1 gneE4 gneE9 gneE11 gneE14"/>
    </vehicle>
    <vehicle id="868" depart="347.20">
        <route edges="-gneE0 gneE2"/>
    </vehicle>
    <vehicle id="870" depart="348.00">
        <route edges="gneE4 gneE9 gneE11 gneE14"/>
    </vehicle>
    <vehicle id="878" depart="351.20">
        <route edges="gneE3 gneE6"/>
    </vehicle>
    <vehicle id="887" depart="354.80">
        <route edges="-gneE11 -gneE9 -gneE4 -gneE1 gneE2 gneE7"/>
    </vehicle>
    <vehicle id="889" depart="355.60">
        <route edges="-gneE16 -gneE12 -gneE9 -gneE4 -gneE1 gneE3 gneE6"/>
    </vehicle>
    <vehicle id="893" depart="357.20">
        <route edges="-gneE12 -gneE9 -gneE4 -gneE1"/>
    </vehicle>
    <vehicle id="897" depart="358.80">
        <route edges="-gneE9 -gneE4 -gneE1"/>
    </vehicle>
    <vehicle id="900" depart="360.00">
        <route edges="-gneE13 -gneE10"/>
    </vehicle>
    <vehicle id="901" depart="360.40">
        <route edges="-gneE11 -gneE9 -gneE4 -gneE1 gneE2 gneE7"/>
    </vehicle>
    <vehicle id="904" depart="361.60">
        <route edges="-gneE3"/>
    </vehicle>
    <vehicle id="908" depart="363.20">
        <route edges="gneE12"/>
    </vehicle>
    <vehicle id="909" depart="363.60">
        <route edges="-gneE4 -gneE1 gneE2 gneE7"/>
    </vehicle>
    <vehicle id="915" depart="366.00">
        <route edges="gneE3"/>
    </vehicle>
    <vehicle id="920" depart="368.00">
        <route edges="gneE12 gneE16"/>
    </vehicle>
    <vehicle id="927" depart="370.80">
        <route edges="-gneE9"/>
    </vehicle>
    <vehicle id="931" depart="372.40">
        <route edges="-gneE3 gneE0"/>
    </vehicle>
    <vehicle id="937" depart="374.80">
        <route edges="gneE4 gneE9 gneE11"/>
    </vehicle>
    <vehicle id="939" depart="375.60">
        <route edges="-gneE7 -gneE2 gneE0"/>
    </vehicle>
    <vehicle id="940" depart="376.00">
        <route edges="-gneE14 -gneE11 gneE12 gneE16"/>
    </vehicle>
    <vehicle id="941" depart="376.40">
        <route edges="-gneE12 -gneE9"/>
    </vehicle>
    <vehicle id="942" depart="376.80">
        <route edges="-gneE4 -gneE1 gneE3 gneE6"/>
    </vehicle>
    <vehicle id="951" depart="380.40">
        <route edges="-gneE12 gneE10"/>
    </vehicle>
    <vehicle id="952" depart="380.80">
        <route edges="-gneE1"/>
    </vehicle>
    <vehicle id="953" depart="381.20">
        <route edges="-gneE16 -gneE12"/>
    </vehicle>
    <vehicle id="955" depart="382.00">
        <route edges="-gneE16 -gneE12 -gneE9"/>
    </vehicle>
    <vehicle id="956" depart="382.40">
        <route edges="gneE9 gneE11"/>
    </vehicle>
    <vehicle id="960" depart="384.00">
        <route edges="-gneE12 -gneE9 -gneE4"/>
    </vehicle>
    <vehicle id="962" depart="384.80">
        <route edges="gneE3"/>
    </vehicle>
    <vehicle id="963" depart="385.20">
        <route edges="gneE1 gneE4"/>
    </vehicle>
    <vehicle id="965" depart="386.00">
        <route edges="-gneE12 gneE10 gneE13"/>
    </vehicle>
    <vehicle id="966" depart="386.40">
        <route edges="-gneE1 gneE2 gneE7"/>
    </vehicle>
    <vehicle id="976" depart="390.40">
        <route edges="gneE4 gneE9 gneE10"/>
    </vehicle>
    <vehicle id="980" depart="392.00">
        <route edges="-gneE4 -gneE1 gneE3"/>
    </vehicle>
    <vehicle id="984" depart="393.60">
        <route edges="-gneE13 -gneE10 gneE12 gneE16"/>
    </vehicle>
    <vehicle id="985" depart="394.00">
        <route edges="-gneE0 gneE1 gneE4 gneE9 gneE10"/>
    </vehicle>
    <vehicle id="986" depart="394.40">
        <route edges="-gneE16 -gneE12 -gneE9 -gneE4 -gneE1 gneE2 gneE7"/>
    </vehicle>
    <vehicle id="992" depart="396.80">
        <route edges="gneE4 gneE9 gneE11"/>
    </vehicle>
    <vehicle id="993" depart="397.20">
        <route edges="-gneE13 -gneE10 gneE12 gneE16"/>
    </vehicle>
    <vehicle id="995" depart="398.00">
        <route edges="gneE1 gneE4 gneE9 gneE11 gneE14"/>
    </vehicle>
    <vehicle id="1000" depart="400.00">
        <route edges="-gneE6 -gneE3 gneE1 gneE4 gneE9 gneE10"/>
    </vehicle>
    <vehicle id="1005" depart="402.00">
        <route edges="gneE1 gneE4 gneE9 gneE11 gneE14"/>
    </vehicle>
    <vehicle id="1008" depart="403.20">
        <route edges="-gneE16 -gneE12 -gneE9 -gneE4 -gneE1"/>
    </vehicle>
    <vehicle id="1009" depart="403.60">
        <route edges="gneE1 gneE4 gneE9 gneE11"/>
    </vehicle>
    <vehicle id="1012" depart="404.80">
        <route edges="-gneE14 -gneE11 -gneE9 -gneE4 -gneE1 gneE2"/>
    </vehicle>
    <vehicle id="1014" depart="405.60">
        <route edges="gneE9 gneE11 gneE14"/>
    </vehicle>
    <vehicle id="1016" depart="406.40">
        <route edges="-gneE14 -gneE11 -gneE9 -gneE4 -gneE1 gneE2 gneE7"/>
    </vehicle>
    <vehicle id="1017" depart="406.80">
        <route edges="-gneE14 -gneE11 -gneE9 -gneE4 -gneE1 gneE2 gneE7"/>
    </vehicle>
    <vehicle id="1021" depart="408.40">
        <route edges="-gneE6 -gneE3"/>
    </vehicle>
    <vehicle id="1026" depart="410.40">
        <route edges="-gneE6 -gneE3 gneE1 gneE4 gneE9 gneE11 gneE14"/>
    </vehicle>
    <vehicle id="1029" depart="411.60">
        <route edges="-gneE9 -gneE4 -gneE1 gneE3 gneE6"/>
    </vehicle>
    <vehicle id="1031" depart="412.40">
        <route edges="-gneE5 -gneE0"/>
    </vehicle>
    <vehicle id="1033" depart="413.20">
        <route edges="-gneE5 -gneE0 gneE2"/>
    </vehicle>
    <vehicle id="1035" depart="414.00">
        <route edges="-gneE3 gneE1 gneE4 gneE9 gneE11 gneE14"/>
    </vehicle>
    <vehicle id="1037" depart="414.80">
        <route edges="-gneE1 gneE3"/>
    </vehicle>
    <vehicle id="1039" depart="415.60">
        <route edges="-gneE3 gneE1 gneE4 gneE9"/>
    </vehicle>
    <vehicle id="1041" depart="416.40">
        <route edges="-gneE14 -gneE11 -gneE9 -gneE4"/>
    </vehicle>
    <vehicle id="1048" depart="419.20">
        <route edges="gneE3"/>
    </vehicle>
    <vehicle id="1049" depart="419.60">
        <route edges="-gneE7 -gneE2 gneE3 gneE6"/>
    </vehicle>
    <vehicle id="1053" depart="421.20">
        <route edges="-gneE6 -gneE3 gneE1 gneE4 gneE9"/>
    </vehicle>
    <vehicle id="1059" depart="423.60">
        <route edges="-gneE9 -gneE4 -gneE1 gneE2"/>
    </vehicle>
    <vehicle id="1060" depart="424.00">
        <route edges="gneE4 gneE9 gneE11"/>
    </vehicle>
    <vehicle id="1066" depart="426.40">
        <route edges="-gneE11 -gneE9 -gneE4 -gneE1 gneE2"/>
    </vehicle>
    <vehicle id="1068" depart="427.20">
        <route edges="-gneE2 gneE3"/>
    </vehicle>
    <vehicle id="1072" depart="428.80">
        <route edges="gneE1 gneE4 gneE9"/>
    </vehicle>
    <vehicle id="1074" depart="429.60">
        <route edges="-gneE0 gneE1 gneE4 gneE9 gneE10"/>
    </vehicle>
    <vehicle id="1075" depart="430.00">
        <route edges="-gneE5 -gneE0 gneE1 gneE4"/>
    </vehicle>
    <vehicle id="1080" depart="432.00">
        <route edges="gneE4 gneE9 gneE11"/>
    </vehicle>
    <vehicle id="1084" depart="433.60">
        <route edges="-gneE11 -gneE9 -gneE4"/>
    </vehicle>
    <vehicle id="1089" depart="435.60">
        <route edges="-gneE3 gneE0"/>
    </vehicle>
    <vehicle id="1098" depart="439.20">
        <route edges="gneE3"/>
    </vehicle>
    <vehicle id="1099" depart="439.60">
        <route edges="gneE2 gneE7"/>
    </vehicle>
    <vehicle id="1107" depart="442.80">
        <route edges="gneE1 gneE4"/>
    </vehicle>
    <vehicle id="1108" depart="443.20">
        <route edges="-gneE3 gneE1 gneE4 gneE9"/>
    </vehicle>
    <vehicle id="1111" depart="444.40">
        <route edges="-gneE3 gneE1 gneE4 gneE9 gneE10 gneE13"/>
    </vehicle>
    <vehicle id="1115" depart="446.00">
        <route edges="-gneE2 gneE0"/>
    </vehicle>
    <vehicle id="1122" depart="448.80">
        <route edges="-gneE14 -gneE11 -gneE9 -gneE4"/>
    </vehicle>
    <vehicle id="1126" depart="450.40">
        <route edges="-gneE1 gneE3 gneE6"/>
    </vehicle>
    <vehicle id="1129" depart="451.60">