<?xml version="1.0" encoding="UTF-8"?>

<!-- generated on 2021-09-29 19:30:36 by Eclipse SUMO duarouter Version 1.9.2
<configuration xmlns:xsi="http://www.w3.org/2001/XMLSchema-instance" xsi:noNamespaceSchemaLocation="http://sumo.dlr.de/xsd/duarouterConfiguration.xsd">

    <input>
        <net-file value="/home/sonic/Desktop/nets/case03/intersection.net.xml"/>
        <route-files value="trips.trips.xml"/>
    </input>

    <output>
        <output-file value="intersection_random8.rou.xml"/>
        <alternatives-output value="intersection_random8.rou.alt.xml"/>
    </output>

    <time>
        <begin value="0"/>
        <end value="3600.0"/>
    </time>

    <report>
        <no-warnings value="true"/>
        <ignore-errors value="true"/>
        <no-step-log value="true"/>
    </report>

</configuration>
-->

<routes xmlns:xsi="http://www.w3.org/2001/XMLSchema-instance" xsi:noNamespaceSchemaLocation="http://sumo.dlr.de/xsd/routes_file.xsd">
    <vehicle id="5" depart="2.00">
        <route edges="-gneE11 -gneE9 -gneE4 -gneE1"/>
    </vehicle>
    <vehicle id="9" depart="3.60">
        <route edges="-gneE9 -gneE4 -gneE1 gneE3"/>
    </vehicle>
    <vehicle id="11" depart="4.40">
        <route edges="-gneE6 -gneE3 gneE1 gneE4 gneE9 gneE10 gneE13"/>
    </vehicle>
    <vehicle id="13" depart="5.20">
        <route edges="-gneE16 -gneE12 -gneE9 -gneE4 -gneE1 gneE3"/>
    </vehicle>
    <vehicle id="16" depart="6.40">
        <route edges="-gneE12 -gneE9 -gneE4 -gneE1 gneE3"/>
    </vehicle>
    <vehicle id="17" depart="6.80">
        <route edges="-gneE7 -gneE2"/>
    </vehicle>
    <vehicle id="24" depart="9.60">
        <route edges="-gneE11 -gneE9 -gneE4 -gneE1"/>
    </vehicle>
    <vehicle id="27" depart="10.80">
        <route edges="-gneE14 -gneE11 -gneE9"/>
    </vehicle>
    <vehicle id="31" depart="12.40">
        <route edges="-gneE11"/>
    </vehicle>
    <vehicle id="39" depart="15.60">
        <route edges="gneE4 gneE9 gneE11 gneE14"/>
    </vehicle>
    <vehicle id="40" depart="16.00">
        <route edges="gneE12"/>
    </vehicle>
    <vehicle id="43" depart="17.20">
        <route edges="-gneE11"/>
    </vehicle>
    <vehicle id="44" depart="17.60">
        <route edges="-gneE3 gneE1 gneE4 gneE9 gneE11 gneE14"/>
    </vehicle>
    <vehicle id="45" depart="18.00">
        <route edges="-gneE11 -gneE9 -gneE4 -gneE1 gneE3"/>
    </vehicle>
    <vehicle id="48" depart="19.20">
        <route edges="-gneE0 gneE1"/>
    </vehicle>
    <vehicle id="51" depart="20.40">
        <route edges="-gneE4"/>
    </vehicle>
    <vehicle id="53" depart="21.20">
        <route edges="-gneE14 -gneE11 -gneE9"/>
    </vehicle>
    <vehicle id="57" depart="22.80">
        <route edges="-gneE3 gneE0"/>
    </vehicle>
    <vehicle id="59" depart="23.60">
        <route edges="-gneE16 -gneE12 -gneE9"/>
    </vehicle>
    <vehicle id="60" depart="24.00">
        <route edges="gneE9 gneE10 gneE13"/>
    </vehicle>
    <vehicle id="66" depart="26.40">
        <route edges="-gneE2 gneE3"/>
    </vehicle>
    <vehicle id="68" depart="27.20">
        <route edges="-gneE6 -gneE3 gneE0 gneE5"/>
    </vehicle>
    <vehicle id="71" depart="28.40">
        <route edges="gneE1 gneE4 gneE9 gneE11 gneE14"/>
    </vehicle>
    <vehicle id="72" depart="28.80">
        <route edges="-gneE9 -gneE4 -gneE1 gneE3"/>
    </vehicle>
    <vehicle id="74" depart="29.60">
        <route edges="-gneE14 -gneE11 -gneE9 -gneE4 -gneE1 gneE2"/>
    </vehicle>
    <vehicle id="77" depart="30.80">
        <route edges="-gneE4 -gneE1 gneE3 gneE6"/>
    </vehicle>
    <vehicle id="85" depart="34.00">
        <route edges="-gneE0 gneE1"/>
    </vehicle>
    <vehicle id="86" depart="34.40">
        <route edges="-gneE12 -gneE9 -gneE4 -gneE1 gneE2"/>
    </vehicle>
    <vehicle id="87" depart="34.80">
        <route edges="-gneE5 -gneE0 gneE1 gneE4"/>
    </vehicle>
    <vehicle id="88" depart="35.20">
        <route edges="-gneE0 gneE1 gneE4 gneE9"/>
    </vehicle>
    <vehicle id="91" depart="36.40">
        <route edges="gneE4 gneE9 gneE11 gneE14"/>
    </vehicle>
    <vehicle id="93" depart="37.20">
        <route edges="-gneE16 -gneE12"/>
    </vehicle>
    <vehicle id="94" depart="37.60">
        <route edges="gneE10"/>
    </vehicle>
    <vehicle id="98" depart="39.20">
        <route edges="-gneE11 -gneE9"/>
    </vehicle>
    <vehicle id="101" depart="40.40">
        <route edges="-gneE12 -gneE9 -gneE4 -gneE1 gneE3 gneE6"/>
    </vehicle>
    <vehicle id="103" depart="41.20">
        <route edges="-gneE0 gneE1 gneE4 gneE9 gneE10"/>
    </vehicle>
    <vehicle id="107" depart="42.80">
        <route edges="-gneE10 gneE12"/>
    </vehicle>
    <vehicle id="113" depart="45.20">
        <route edges="gneE2 gneE7"/>
    </vehicle>
    <vehicle id="116" depart="46.40">
        <route edges="-gneE3 gneE1 gneE4 gneE9 gneE10"/>
    </vehicle>
    <vehicle id="117" depart="46.80">
        <route edges="gneE10 gneE13"/>
    </vehicle>
    <vehicle id="119" depart="47.60">
        <route edges="gneE3"/>
    </vehicle>
    <vehicle id="121" depart="48.40">
        <route edges="-gneE7 -gneE2 gneE3"/>
    </vehicle>
    <vehicle id="123" depart="49.20">
        <route edges="-gneE16 -gneE12 -gneE9 -gneE4"/>
    </vehicle>
    <vehicle id="127" depart="50.80">
        <route edges="-gneE3 gneE1 gneE4 gneE9"/>
    </vehicle>
    <vehicle id="134" depart="53.60">
        <route edges="-gneE3 gneE1 gneE4 gneE9 gneE10"/>
    </vehicle>
    <vehicle id="137" depart="54.80">
        <route edges="gneE12"/>
    </vehicle>
    <vehicle id="138" depart="55.20">
        <route edges="-gneE11 -gneE9 -gneE4 -gneE1 gneE3"/>
    </vehicle>
    <vehicle id="139" depart="55.60">
        <route edges="gneE4 gneE9 gneE11 gneE14"/>
    </vehicle>
    <vehicle id="140" depart="56.00">
        <route edges="-gneE6 -gneE3 gneE1 gneE4 gneE9 gneE10"/>
    </vehicle>
    <vehicle id="143" depart="57.20">
        <route edges="gneE0"/>
    </vehicle>
    <vehicle id="148" depart="59.20">
        <route edges="-gneE1 gneE3 gneE6"/>
    </vehicle>
    <vehicle id="158" depart="63.20">
        <route edges="gneE11 gneE14"/>
    </vehicle>
    <vehicle id="168" depart="67.20">
        <route edges="gneE1"/>
    </vehicle>
    <vehicle id="170" depart="68.00">
        <route edges="-gneE2 gneE0"/>
    </vehicle>
    <vehicle id="178" depart="71.20">
        <route edges="-gneE3 gneE1 gneE4 gneE9 gneE10 gneE13"/>
    </vehicle>
    <vehicle id="180" depart="72.00">
        <route edges="-gneE14 -gneE11 -gneE9 -gneE4 -gneE1"/>
    </vehicle>
    <vehicle id="185" depart="74.00">
        <route edges="-gneE3"/>
    </vehicle>
    <vehicle id="187" depart="74.80">
        <route edges="-gneE11 -gneE9 -gneE4 -gneE1 gneE3 gneE6"/>
    </vehicle>
    <vehicle id="194" depart="77.60">
        <route edges="-gneE9 -gneE4 -gneE1 gneE2 gneE7"/>
    </vehicle>
    <vehicle id="203" depart="81.20">
        <route edges="gneE9 gneE11"/>
    </vehicle>
    <vehicle id="205" depart="82.00">
        <route edges="-gneE6 -gneE3 gneE1"/>
    </vehicle>
    <vehicle id="208" depart="83.20">
        <route edges="gneE1 gneE4 gneE9"/>
    </vehicle>
    <vehicle id="213" depart="85.20">
        <route edges="-gneE11"/>
    </vehicle>
    <vehicle id="215" depart="86.00">
        <route edges="-gneE9 -gneE4 -gneE1 gneE3"/>
    </vehicle>
    <vehicle id="216" depart="86.40">
        <route edges="gneE9 gneE11 gneE14"/>
    </vehicle>
    <vehicle id="226" depart="90.40">
        <route edges="-gneE13 -gneE10 gneE11 gneE14"/>
    </vehicle>
    <vehicle id="227" depart="90.80">
        <route edges="gneE9 gneE10"/>
    </vehicle>
    <vehicle id="228" depart="91.20">
        <route edges="-gneE4 -gneE1 gneE2 gneE7"/>
    </vehicle>
    <vehicle id="231" depart="92.40">
        <route edges="-gneE10 gneE12 gneE16"/>
    </vehicle>
    <vehicle id="241" depart="96.40">
        <route edges="-gneE12 -gneE9 -gneE4 -gneE1 gneE3"/>
    </vehicle>
    <vehicle id="245" depart="98.00">
        <route edges="-gneE2 gneE3"/>
    </vehicle>
    <vehicle id="257" depart="102.80">
        <route edges="-gneE5 -gneE0 gneE2 gneE7"/>
    </vehicle>
    <vehicle id="268" depart="107.20">
        <route edges="-gneE3 gneE1 gneE4 gneE9 gneE10 gneE13"/>
    </vehicle>
    <vehicle id="271" depart="108.40">
        <route edges="-gneE12 -gneE9 -gneE4 -gneE1 gneE2 gneE7"/>
    </vehicle>
    <vehicle id="275" depart="110.00">
        <route edges="gneE2 gneE7"/>
    </vehicle>
    <vehicle id="277" depart="110.80">
        <route edges="-gneE6 -gneE3 gneE1 gneE4 gneE9"/>
    </vehicle>
    <vehicle id="287" depart="114.80">
        <route edges="-gneE5 -gneE0 gneE1 gneE4 gneE9 gneE10"/>
    </vehicle>
    <vehicle id="297" depart="118.80">
        <route edges="-gneE5 -gneE0 gneE1 gneE4 gneE9 gneE10"/>
    </vehicle>
    <vehicle id="303" depart="121.20">
        <route edges="gneE1 gneE4 gneE9 gneE11"/>
    </vehicle>
    <vehicle id="304" depart="121.60">
        <route edges="-gneE12 -gneE9 -gneE4"/>
    </vehicle>
    <vehicle id="306" depart="122.40">
        <route edges="-gneE11"/>
    </vehicle>
    <vehicle id="312" depart="124.80">
        <route edges="-gneE11 -gneE9 -gneE4 -gneE1 gneE2 gneE7"/>
    </vehicle>
    <vehicle id="319" depart="127.60">
        <route edges="-gneE11 -gneE9"/>
    </vehicle>
    <vehicle id="320" depart="128.00">
        <route edges="-gneE3 gneE1 gneE4 gneE9 gneE10"/>
    </vehicle>
    <vehicle id="321" depart="128.40">
        <route edges="gneE10 gneE13"/>
    </vehicle>
    <vehicle id="342" depart="136.80">
        <route edges="gneE10"/>
    </vehicle>
    <vehicle id="356" depart="142.40">
        <route edges="-gneE16 -gneE12 -gneE9 -gneE4 -gneE1 gneE2"/>
    </vehicle>
    <vehicle id="361" depart="144.40">
        <route edges="-gneE5 -gneE0 gneE1 gneE4 gneE9 gneE11 gneE14"/>
    </vehicle>
    <vehicle id="363" depart="145.20">
        <route edges="gneE9 gneE11"/>
    </vehicle>
    <vehicle id="367" depart="146.80">
        <route edges="-gneE16 -gneE12 gneE10"/>
    </vehicle>
    <vehicle id="368" depart="147.20">
        <route edges="-gneE5 -gneE0 gneE1 gneE4 gneE9 gneE11 gneE14"/>
    </vehicle>
    <vehicle id="377" depart="150.80">
        <route edges="-gneE3 gneE1 gneE4 gneE9 gneE10"/>
    </vehicle>
    <vehicle id="378" depart="151.20">
        <route edges="-gneE16 -gneE12 -gneE9 -gneE4 -gneE1 gneE2 gneE7"/>
    </vehicle>
    <vehicle id="381" depart="152.40">
        <route edges="gneE4 gneE9 gneE11 gneE14"/>
    </vehicle>
    <vehicle id="385" depart="154.00">
        <route edges="-gneE13 -gneE10"/>
    </vehicle>
    <vehicle id="388" depart="155.20">
        <route edges="gneE4 gneE9 gneE10 gneE13"/>
    </vehicle>
    <vehicle id="395" depart="158.00">
        <route edges="-gneE6 -gneE3 gneE1 gneE4 gneE9 gneE10"/>
    </vehicle>
    <vehicle id="396" depart="158.40">
        <route edges="-gneE10 gneE11 gneE14"/>
    </vehicle>
    <vehicle id="397" depart="158.80">
        <route edges="-gneE11 -gneE9 -gneE4 -gneE1 gneE2"/>
    </vehicle>
    <vehicle id="405" depart="162.00">
        <route edges="-gneE12 -gneE9"/>
    </vehicle>
    <vehicle id="410" depart="164.00">
        <route edges="gneE1 gneE4 gneE9 gneE11"/>
    </vehicle>
    <vehicle id="414" depart="165.60">
        <route edges="-gneE16 -gneE12 -gneE9 -gneE4 -gneE1"/>
    </vehicle>
    <vehicle id="415" depart="166.00">
        <route edges="-gneE1 gneE2"/>
    </vehicle>
    <vehicle id="418" depart="167.20">
        <route edges="-gneE9 -gneE4 -gneE1 gneE3 gneE6"/>
    </vehicle>
    <vehicle id="420" depart="168.00">
        <route edges="-gneE12 -gneE9 -gneE4 -gneE1 gneE3 gneE6"/>
    </vehicle>
    <vehicle id="424" depart="169.60">
        <route edges="-gneE3 gneE1 gneE4 gneE9 gneE10"/>
    </vehicle>
    <vehicle id="428" depart="171.20">
        <route edges="-gneE13 -gneE10 gneE11 gneE14"/>
    </vehicle>
    <vehicle id="431" depart="172.40">
        <route edges="-gneE4 -gneE1 gneE3"/>
    </vehicle>
    <vehicle id="432" depart="172.80">
        <route edges="gneE11"/>
    </vehicle>
    <vehicle id="434" depart="173.60">
        <route edges="-gneE1 gneE3 gneE6"/>
    </vehicle>
    <vehicle id="436" depart="174.40">
        <route edges="gneE0"/>
    </vehicle>
    <vehicle id="442" depart="176.80">
        <route edges="-gneE5 -gneE0 gneE1 gneE4 gneE9 gneE10 gneE13"/>
    </vehicle>
    <vehicle id="444" depart="177.60">
        <route edges="-gneE13 -gneE10 gneE12"/>
    </vehicle>
    <vehicle id="445" depart="178.00">
        <route edges="-gneE9 -gneE4"/>
    </vehicle>
    <vehicle id="448" depart="179.20">
        <route edges="-gneE9 -gneE4"/>
    </vehicle>
    <vehicle id="450" depart="180.00">
        <route edges="-gneE6 -gneE3 gneE1 gneE4 gneE9 gneE10"/>
    </vehicle>
    <vehicle id="457" depart="182.80">
        <route edges="-gneE10 gneE11 gneE14"/>
    </vehicle>
    <vehicle id="458" depart="183.20">
        <route edges="-gneE10 gneE11"/>
    </vehicle>
    <vehicle id="464" depart="185.60">
        <route edges="-gneE0 gneE1 gneE4 gneE9"/>
    </vehicle>
    <vehicle id="465" depart="186.00">
        <route edges="-gneE0 gneE1 gneE4 gneE9 gneE10"/>
    </vehicle>
    <vehicle id="467" depart="186.80">
        <route edges="-gneE2 gneE0 gneE5"/>
    </vehicle>
    <vehicle id="478" depart="191.20">
        <route edges="-gneE6 -gneE3 gneE1 gneE4 gneE9 gneE10 gneE13"/>
    </vehicle>
    <vehicle id="484" depart="193.60">
        <route edges="gneE10"/>
    </vehicle>
    <vehicle id="486" depart="194.40">
        <route edges="-gneE1 gneE2 gneE7"/>
    </vehicle>
    <vehicle id="491" depart="196.40">
        <route edges="-gneE3 gneE1 gneE4"/>
    </vehicle>
    <vehicle id="496" depart="198.40">
        <route edges="-gneE16 -gneE12 gneE10 gneE13"/>
    </vehicle>
    <vehicle id="499" depart="199.60">
        <route edges="-gneE6 -gneE3 gneE1 gneE4 gneE9 gneE11 gneE14"/>
    </vehicle>
    <vehicle id="501" depart="200.40">
        <route edges="-gneE5 -gneE0 gneE2"/>
    </vehicle>
    <vehicle id="516" depart="206.40">
        <route edges="-gneE6 -gneE3 gneE1"/>
    </vehicle>
    <vehicle id="518" depart="207.20">
        <route edges="-gneE5 -gneE0 gneE1"/>
    </vehicle>
    <vehicle id="536" depart="214.40">
        <route edges="-gneE6 -gneE3 gneE1"/>
    </vehicle>
    <vehicle id="545" depart="218.00">
        <route edges="-gneE6 -gneE3 gneE1 gneE4"/>
    </vehicle>
    <vehicle id="551" depart="220.40">
        <route edges="-gneE3 gneE1 gneE4"/>
    </vehicle>
    <vehicle id="553" depart="221.20">
        <route edges="gneE9 gneE11"/>
    </vehicle>
    <vehicle id="557" depart="222.80">
        <route edges="gneE9 gneE10 gneE13"/>
    </vehicle>
    <vehicle id="560" depart="224.00">
        <route edges="-gneE4 -gneE1"/>
    </vehicle>
    <vehicle id="569" depart="227.60">
        <route edges="-gneE1 gneE3"/>
    </vehicle>
    <vehicle id="575" depart="230.00">
        <route edges="-gneE11 -gneE9 -gneE4 -gneE1 gneE3"/>
    </vehicle>
    <vehicle id="579" depart="231.60">
        <route edges="gneE10"/>
    </vehicle>
    <vehicle id="581" depart="232.40">
        <route edges="gneE0"/>
    </vehicle>
    <vehicle id="583" depart="233.20">
        <route edges="-gneE1 gneE3 gneE6"/>
    </vehicle>
    <vehicle id="589" depart="235.60">
        <route edges="gneE4 gneE9 gneE10"/>
    </vehicle>
    <vehicle id="590" depart="236.00">
        <route edges="gneE9 gneE11 gneE14"/>
    </vehicle>
    <vehicle id="592" depart="236.80">
        <route edges="gneE1 gneE4"/>
    </vehicle>
    <vehicle id="593" depart="237.20">
        <route edges="-gneE2 gneE3 gneE6"/>
    </vehicle>
    <vehicle id="594" depart="237.60">
        <route edges="-gneE13 -gneE10 gneE11 gneE14"/>
    </vehicle>
    <vehicle id="595" depart="238.00">
        <route edges="-gneE9 -gneE4"/>
    </vehicle>
    <vehicle id="598" depart="239.20">
        <route edges="-gneE2 gneE0"/>
    </vehicle>
    <vehicle id="599" depart="239.60">
        <route edges="-gneE12 gneE10 gneE13"/>
    </vehicle>
    <vehicle id="602" depart="240.80">
        <route edges="-gneE5 -gneE0 gneE1 gneE4"/>
    </vehicle>
    <vehicle id="605" depart="242.00">
        <route edges="-gneE13 -gneE10 gneE12"/>
    </vehicle>
    <vehicle id="614" depart="245.60">
        <route edges="-gneE14 -gneE11 -gneE9"/>
    </vehicle>
    <vehicle id="616" depart="246.40">
        <route edges="gneE9 gneE10 gneE13"/>
    </vehicle>
    <vehicle id="619" depart="247.60">
        <route edges="-gneE9 -gneE4 -gneE1 gneE3 gneE6"/>
    </vehicle>
    <vehicle id="620" depart="248.00">
        <route edges="-gneE14 -gneE11 -gneE9 -gneE4"/>
    </vehicle>
    <vehicle id="621" depart="248.40">
        <route edges="-gneE0 gneE2"/>
    </vehicle>
    <vehicle id="622" depart="248.80">
        <route edges="-gneE0 gneE1 gneE4 gneE9 gneE11"/>
    </vehicle>
    <vehicle id="624" depart="249.60">
        <route edges="gneE12 gneE16"/>
    </vehicle>
    <vehicle id="626" depart="250.40">
        <route edges="gneE0"/>
    </vehicle>
    <vehicle id="633" depart="253.20">
        <route edges="-gneE6 -gneE3 gneE0 gneE5"/>
    </vehicle>
    <vehicle id="640" depart="256.00">
        <route edges="gneE4 gneE9 gneE11"/>
    </vehicle>
    <vehicle id="646" depart="258.40">
        <route edges="-gneE11 -gneE9 -gneE4 -gneE1 gneE2"/>
    </vehicle>
    <vehicle id="648" depart="259.20">
        <route edges="-gneE11 -gneE9"/>
    </vehicle>
    <vehicle id="650" depart="260.00">
        <route edges="-gneE13 -gneE10 gneE11 gneE14"/>
    </vehicle>
    <vehicle id="651" depart="260.40">
        <route edges="-gneE16 -gneE12 -gneE9 -gneE4 -gneE1 gneE2 gneE7"/>
    </vehicle>
    <vehicle id="656" depart="262.40">
        <route edges="-gneE3 gneE0"/>
    </vehicle>
    <vehicle id="659" depart="263.60">
        <route edges="-gneE3 gneE0 gneE5"/>
    </vehicle>
    <vehicle id="664" depart="265.60">
        <route edges="gneE9 gneE10 gneE13"/>
    </vehicle>
    <vehicle id="665" depart="266.00">
        <route edges="-gneE14 -gneE11 gneE12 gneE16"/>
    </vehicle>
    <vehicle id="667" depart="266.80">
        <route edges="-gneE3 gneE1 gneE4 gneE9 gneE11"/>
    </vehicle>
    <vehicle id="668" depart="267.20">
        <route edges="-gneE14 -gneE11 -gneE9 -gneE4 -gneE1"/>
    </vehicle>
    <vehicle id="669" depart="267.60">
        <route edges="-gneE12 -gneE9 -gneE4 -gneE1 gneE2"/>
    </vehicle>
    <vehicle id="673" depart="269.20">
        <route edges="-gneE3 gneE0 gneE5"/>
    </vehicle>
    <vehicle id="676" depart="270.40">
        <route edges="-gneE1"/>
    </vehicle>
    <vehicle id="677" depart="270.80">
        <route edges="gneE12 gneE16"/>
    </vehicle>
    <vehicle id="682" depart="272.80">
        <route edges="-gneE4 -gneE1"/>
    </vehicle>
    <vehicle id="683" depart="273.20">
        <route edges="gneE10"/>
    </vehicle>
    <vehicle id="687" depart="274.80">
        <route edges="-gneE3 gneE0 gneE5"/>
    </vehicle>
    <vehicle id="693" depart="277.20">
        <route edges="gneE1 gneE4 gneE9"/>
    </vehicle>
    <vehicle id="704" depart="281.60">
        <route edges="gneE1 gneE4 gneE9 gneE11"/>
    </vehicle>
    <vehicle id="710" depart="284.00">
        <route edges="gneE4 gneE9"/>
    </vehicle>
    <vehicle id="715" depart="286.00">
        <route edges="gneE4 gneE9 gneE10 gneE13"/>
    </vehicle>
    <vehicle id="718" depart="287.20">
        <route edges="gneE9 gneE10"/>
    </vehicle>
    <vehicle id="722" depart="288.80">
        <route edges="-gneE5 -gneE0 gneE2"/>
    </vehicle>
    <vehicle id="725" depart="290.00">
        <route edges="-gneE12 -gneE9 -gneE4 -gneE1"/>
    </vehicle>
    <vehicle id="731" depart="292.40">
        <route edges="-gneE11 -gneE9 -gneE4 -gneE1"/>
    </vehicle>
    <vehicle id="732" depart="292.80">
        <route edges="-gneE7 -gneE2 gneE0 gneE5"/>
    </vehicle>
    <vehicle id="739" depart="295.60">
        <route edges="-gneE13 -gneE10 gneE12"/>
    </vehicle>
    <vehicle id="748" depart="299.20">
        <route edges="-gneE6 -gneE3 gneE1 gneE4 gneE9"/>
    </vehicle>
    <vehicle id="756" depart="302.40">
        <route edges="-gneE4"/>
    </vehicle>
    <vehicle id="759" depart="303.60">
        <route edges="-gneE5 -gneE0"/>
    </vehicle>
    <vehicle id="761" depart="304.40">
        <route edges="-gneE7 -gneE2"/>
    </vehicle>
    <vehicle id="762" depart="304.80">
        <route edges="-gneE10 gneE12"/>
    </vehicle>
    <vehicle id="763" depart="305.20">
        <route edges="-gneE1 gneE3 gneE6"/>
    </vehicle>
    <vehicle id="764" depart="305.60">
        <route edges="gneE1 gneE4 gneE9 gneE10 gneE13"/>
    </vehicle>
    <vehicle id="778" depart="311.20">
        <route edges="gneE1 gneE4"/>
    </vehicle>
    <vehicle id="780" depart="312.00">
        <route edges="-gneE14 -gneE11 -gneE9 -gneE4 -gneE1 gneE2"/>
    </vehicle>
    <vehicle id="790" depart="316.00">
        <route edges="-gneE11 -gneE9 -gneE4 -gneE1 gneE3 gneE6"/>
    </vehicle>
    <vehicle id="792" depart="316.80">
        <route edges="gneE3 gneE6"/>
    </vehicle>
    <vehicle id="807" depart="322.80">
        <route edges="-gneE7 -gneE2"/>
    </vehicle>
    <vehicle id="808" depart="323.20">
        <route edges="-gneE14 -gneE11 -gneE9 -gneE4"/>
    </vehicle>
    <vehicle id="811" depart="324.40">
        <route edges="gneE12 gneE16"/>
    </vehicle>
    <vehicle id="827" depart="330.80">
        <route edges="-gneE11 -gneE9 -gneE4 -gneE1 gneE2 gneE7"/>
    </vehicle>
    <vehicle id="828" depart="331.20">
        <route edges="-gneE6 -gneE3"/>
    </vehicle>
    <vehicle id="831" depart="332.40">
        <route edges="-gneE2"/>
    </vehicle>
    <vehicle id="832" depart="332.80">
        <route edges="-gneE5 -gneE0 gneE2 gneE7"/>
    </vehicle>
    <vehicle id="834" depart="333.60">
        <route edges="-gneE16 -gneE12"/>
    </vehicle>
    <vehicle id="835" depart="334.00">
        <route edges="-gneE6 -gneE3 gneE1 gneE4 gneE9 gneE11 gneE14"/>
    </vehicle>
    <vehicle id="844" depart="337.60">
        <route edges="gneE9"/>
    </vehicle>
    <vehicle id="845" depart="338.00">
        <route edges="-gneE1 gneE3"/>
    </vehicle>
    <vehicle id="850" depart="340.00">
        <route edges="-gneE2 gneE3 gneE6"/>
    </vehicle>
    <vehicle id="858" depart="343.20">
        <route edges="-gneE14 -gneE11 -gneE9 -gneE4"/>
    </vehicle>
    <vehicle id="860" depart="344.00">
        <route edges="-gneE12"/>
    </vehicle>
    <vehicle id="862" depart="344.80">
        <route edges="-gneE16 -gneE12 -gneE9 -gneE4 -gneE1 gneE2"/>
    </vehicle>
    <vehicle id="867" depart="346.80">
        <route edges="-gneE2"/>
    </vehicle>
    <vehicle id="868" depart="347.20">
        <route edges="-gneE12 -gneE9 -gneE4 -gneE1 gneE3 gneE6"/>
    </vehicle>
    <vehicle id="869" depart="347.60">
        <route edges="-gneE16 -gneE12 gneE10 gneE13"/>
    </vehicle>
    <vehicle id="871" depart="348.40">
        <route edges="-gneE3 gneE1"/>
    </vehicle>
    <vehicle id="878" depart="351.20">
        <route edges="-gneE0 gneE2"/>
    </vehicle>
    <vehicle id="880" depart="352.00">
        <route edges="-gneE5 -gneE0"/>
    </vehicle>
    <vehicle id="886" depart="354.40">
        <route edges="-gneE9 -gneE4 -gneE1 gneE3 gneE6"/>
    </vehicle>
    <vehicle id="890" depart="356.00">
        <route edges="-gneE5 -gneE0"/>
    </vehicle>
    <vehicle id="892" depart="356.80">
        <route edges="gneE11"/>
    </vehicle>
    <vehicle id="894" depart="357.60">
        <route edges="-gneE16 -gneE12 -gneE9 -gneE4"/>
    </vehicle>
    <vehicle id="906" depart="362.40">
        <route edges="-gneE16 -gneE12 gneE10"/>
    </vehicle>
    <vehicle id="914" depart="365.60">
        <route edges="-gneE12 -gneE9 -gneE4 -gneE1 gneE2"/>
    </vehicle>
    <vehicle id="916" depart="366.40">
        <route edges="-gneE11 -gneE9"/>
    </vehicle>
    <vehicle id="918" depart="367.20">
        <route edges="-gneE0 gneE1 gneE4 gneE9 gneE11"/>
    </vehicle>
    <vehicle id="920" depart="368.00">
        <route edges="-gneE0 gneE1 gneE4 gneE9 gneE10 gneE13"/>
    </vehicle>
    <vehicle id="922" depart="368.80">
        <route edges="-gneE9 -gneE4 -gneE1 gneE2 gneE7"/>
    </vehicle>
    <vehicle id="926" depart="370.40">
        <route edges="gneE1 gneE4 gneE9"/>
    </vehicle>
    <vehicle id="927" depart="370.80">
        <route edges="-gneE4 -gneE1"/>
    </vehicle>
    <vehicle id="928" depart="371.20">
        <route edges="-gneE10"/>
    </vehicle>
    <vehicle id="932" depart="372.80">
        <route edges="-gneE16 -gneE12 -gneE9"/>
    </vehicle>
    <vehicle id="936" depart="374.40">
        <route edges="gneE10 gneE13"/>
    </vehicle>
    <vehicle id="938" depart="375.20">
        <route edges="gneE1 gneE4 gneE9 gneE11"/>
    </vehicle>
    <vehicle id="941" depart="376.40">
        <route edges="gneE4 gneE9"/>
    </vehicle>
    <vehicle id="944" depart="377.60">
        <route edges="gneE1 gneE4 gneE9 gneE10 gneE13"/>
    </vehicle>
    <vehicle id="945" depart="378.00">
        <route edges="-gneE11 gneE12 gneE16"/>
    </vehicle>
    <vehicle id="948" depart="379.20">
        <route edges="-gneE14 -gneE11 -gneE9 -gneE4 -gneE1 gneE3"/>
    </vehicle>
    <vehicle id="952" depart="380.80">
        <route edges="-gneE9 -gneE4 -gneE1"/>
    </vehicle>
    <vehicle id="954" depart="381.60">
        <route edges="gneE10 gneE13"/>
    </vehicle>
    <vehicle id="957" depart="382.80">
        <route edges="-gneE0 gneE1 gneE4 gneE9 gneE10"/>
    </vehicle>
    <vehicle id="960" depart="384.00">
        <route edges="-gneE16 -gneE12 gneE10 gneE13"/>
    </vehicle>
    <vehicle id="961" depart="384.40">
        <route edges="-gneE10 gneE11"/>
    </vehicle>
    <vehicle id="966" depart="386.40">
        <route edges="gneE1 gneE4 gneE9 gneE10 gneE13"/>
    </vehicle>
    <vehicle id="968" depart="387.20">
        <route edges="-gneE14 -gneE11"/>
    </vehicle>
    <vehicle id="972" depart="388.80">
        <route edges="-gneE3 gneE1 gneE4 gneE9 gneE11 gneE14"/>
    </vehicle>
    <vehicle id="975" depart="390.00">
        <route edges="gneE4"/>
    </vehicle>
    <vehicle id="976" depart="390.40">
        <route edges="-gneE4"/>
    </vehicle>
    <vehicle id="978" depart="391.20">
        <route edges="gneE1 gneE4"/>
    </vehicle>
    <vehicle id="979" depart="391.60">
        <route edges="-gneE3 gneE1"/>
    </vehicle>
    <vehicle id="989" depart="395.60">
        <route edges="-gneE4 -gneE1 gneE2 gneE7"/>
    </vehicle>
    <vehicle id="995" depart="398.00">
        <route edges="-gneE11 gneE12 gneE16"/>
    </vehicle>
    <vehicle id="997" depart="398.80">
        <route edges="-gneE0"/>
    </vehicle>
    <vehicle id="998" depart="399.20">
        <route edges="-gneE7 -gneE2"/>
    </vehicle>
    <vehicle id="999" depart="399.60">
        <route edges="-gneE12 -gneE9 -gneE4 -gneE1"/>
    </vehicle>
    <vehicle id="1000" depart="400.00">
        <route edges="-gneE9 -gneE4 -gneE1 gneE2 gneE7"/>
    </vehicle>
    <vehicle id="1008" depart="403.20">
        <route edges="gneE4 gneE9 gneE11"/>
    </vehicle>
    <vehicle id="1009" depart="403.60">
        <route edges="-gneE11 -gneE9 -gneE4 -gneE1"/>
    </vehicle>
    <vehicle id="1010" depart="404.00">
        <route edges="-gneE12 gneE10"/>
    </vehicle>
    <vehicle id="1013" depart="405.20">
        <route edges="-gneE9 -gneE4 -gneE1 gneE3 gneE6"/>
    </vehicle>
    <vehicle id="1017" depart="406.80">
        <route edges="-gneE0 gneE1 gneE4 gneE9 gneE11"/>
    </vehicle>
    <vehicle id="1022" depart="408.80">
        <route edges="-gneE7 -gneE2 gneE3 gneE6"/>
    </vehicle>
    <vehicle id="1032" depart="412.80">
        <route edges="-gneE12 -gneE9 -gneE4 -gneE1 gneE2 gneE7"/>
    </vehicle>
    <vehicle id="1047" depart="418.80">
        <route edges="-gneE14 -gneE11 gneE12"/>
    </vehicle>
    <vehicle id="1049" depart="419.60">
        <route edges="-gneE5 -gneE0 gneE2 gneE7"/>
    </vehicle>
    <vehicle id="1052" depart="420.80">
        <route edges="gneE10 gneE13"/>
    </vehicle>
    <vehicle id="1056" depart="422.40">
        <route edges="-gneE6 -gneE3 gneE1 gneE4 gneE9 gneE10 gneE13"/>
    </vehicle>
    <vehicle id="1059" depart="423.60">
        <route edges="-gneE11 -gneE9 -gneE4 -gneE1"/>
    </vehicle>
    <vehicle id="1061" depart="424.40">
        <route edges="-gneE13 -gneE10 gneE12 gneE16"/>
    </vehicle>
    <vehicle id="1062" depart="424.80">
        <route edges="-gneE2 gneE0"/>
    </vehicle>
    <vehicle id="1069" depart="427.60">
        <route edges="-gneE9"/>
    </vehicle>
    <vehicle id="1071" depart="428.40">
        <route edges="-gneE13 -gneE10 gneE12"/>
    </vehicle>
    <vehicle id="1081" depart="432.40">
        <route edges="-gneE16 -gneE12 -gneE9 -gneE4 -gneE1 gneE2"/>
    </vehicle>
    <vehicle id="1082" depart="432.80">
        <route edges="-gneE6 -gneE3 gneE0 gneE5"/>
    </vehicle>
    <vehicle id="1091" depart="436.40">
        <route edges="-gneE16 -gneE12 gneE10"/>
    </vehicle>
    <vehicle id="1092" depart="436.80">
        <route edges="-gneE16 -gneE12 -gneE9 -gneE4 -gneE1"/>
    </vehicle>
    <vehicle id="1093" depart="437.20">
        <route edges="-gneE6 -gneE3 gneE0"/>
    </vehicle>
    <vehicle id="1094" depart="437.60">
        <route edges="-gneE10 gneE12 gneE16"/>
    </vehicle>
    <vehicle id="1098" depart="439.20">
        <route edges="-gneE12 gneE10 gneE13"/>
    </vehicle>
    <vehicle id="1099" depart="439.60">
        <route edges="gneE2 gneE7"/>
    </vehicle>
    <vehicle id="1100" depart="440.00">
        <route edges="-gneE11 -gneE9 -gneE4 -gneE1 gneE3"/>
    </vehicle>
    <vehicle id="1102" depart="440.80">
        <route edges="-gneE4 -gneE1 gneE2 gneE7"/>
    </vehicle>
    <vehicle id="1104" depart="441.60">