<?xml version="1.0" encoding="UTF-8"?>

<!-- generated on 2021-09-29 19:30:51 by Eclipse SUMO duarouter Version 1.9.2
<configuration xmlns:xsi="http://www.w3.org/2001/XMLSchema-instance" xsi:noNamespaceSchemaLocation="http://sumo.dlr.de/xsd/duarouterConfiguration.xsd">

    <input>
        <net-file value="/home/sonic/Desktop/nets/case03/intersection.net.xml"/>
        <route-files value="trips.trips.xml"/>
    </input>

    <output>
        <output-file value="intersection_random38.rou.xml"/>
        <alternatives-output value="intersection_random38.rou.alt.xml"/>
    </output>

    <time>
        <begin value="0"/>
        <end value="3600.0"/>
    </time>

    <report>
        <no-warnings value="true"/>
        <ignore-errors value="true"/>
        <no-step-log value="true"/>
    </report>

</configuration>
-->

<routes xmlns:xsi="http://www.w3.org/2001/XMLSchema-instance" xsi:noNamespaceSchemaLocation="http://sumo.dlr.de/xsd/routes_file.xsd">
    <vehicle id="5" depart="2.00">
        <route edges="-gneE14 -gneE11 gneE12 gneE16"/>
    </vehicle>
    <vehicle id="10" depart="4.00">
        <route edges="gneE11 gneE14"/>
    </vehicle>
    <vehicle id="14" depart="5.60">
        <route edges="gneE12 gneE16"/>
    </vehicle>
    <vehicle id="21" depart="8.40">
        <route edges="-gneE16 -gneE12 -gneE9 -gneE4 -gneE1"/>
    </vehicle>
    <vehicle id="24" depart="9.60">
        <route edges="gneE9 gneE11"/>
    </vehicle>
    <vehicle id="28" depart="11.20">
        <route edges="gneE3 gneE6"/>
    </vehicle>
    <vehicle id="29" depart="11.60">
        <route edges="-gneE11 gneE12 gneE16"/>
    </vehicle>
    <vehicle id="34" depart="13.60">
        <route edges="-gneE0 gneE1 gneE4 gneE9 gneE11 gneE14"/>
    </vehicle>
    <vehicle id="35" depart="14.00">
        <route edges="gneE10"/>
    </vehicle>
    <vehicle id="41" depart="16.40">
        <route edges="-gneE9 -gneE4 -gneE1 gneE3"/>
    </vehicle>
    <vehicle id="46" depart="18.40">
        <route edges="gneE12 gneE16"/>
    </vehicle>
    <vehicle id="57" depart="22.80">
        <route edges="-gneE2 gneE0"/>
    </vehicle>
    <vehicle id="67" depart="26.80">
        <route edges="-gneE16 -gneE12 -gneE9 -gneE4 -gneE1"/>
    </vehicle>
    <vehicle id="71" depart="28.40">
        <route edges="-gneE11 -gneE9"/>
    </vehicle>
    <vehicle id="73" depart="29.20">
        <route edges="-gneE0"/>
    </vehicle>
    <vehicle id="79" depart="31.60">
        <route edges="-gneE6 -gneE3 gneE1 gneE4 gneE9 gneE11 gneE14"/>
    </vehicle>
    <vehicle id="83" depart="33.20">
        <route edges="gneE1 gneE4 gneE9 gneE11"/>
    </vehicle>
    <vehicle id="85" depart="34.00">
        <route edges="-gneE1"/>
    </vehicle>
    <vehicle id="88" depart="35.20">
        <route edges="-gneE12 gneE10 gneE13"/>
    </vehicle>
    <vehicle id="91" depart="36.40">
        <route edges="-gneE9 -gneE4 -gneE1 gneE2"/>
    </vehicle>
    <vehicle id="92" depart="36.80">
        <route edges="-gneE0 gneE1 gneE4 gneE9 gneE10 gneE13"/>
    </vehicle>
    <vehicle id="97" depart="38.80">
        <route edges="-gneE4 -gneE1 gneE3"/>
    </vehicle>
    <vehicle id="102" depart="40.80">
        <route edges="-gneE14 -gneE11 -gneE9"/>
    </vehicle>
    <vehicle id="103" depart="41.20">
        <route edges="-gneE5 -gneE0 gneE1"/>
    </vehicle>
    <vehicle id="112" depart="44.80">
        <route edges="-gneE9 -gneE4 -gneE1 gneE2"/>
    </vehicle>
    <vehicle id="114" depart="45.60">
        <route edges="-gneE6 -gneE3 gneE1 gneE4 gneE9 gneE11"/>
    </vehicle>
    <vehicle id="115" depart="46.00">
        <route edges="-gneE2"/>
    </vehicle>
    <vehicle id="118" depart="47.20">
        <route edges="-gneE11 -gneE9 -gneE4 -gneE1 gneE2 gneE7"/>
    </vehicle>
    <vehicle id="120" depart="48.00">
        <route edges="-gneE3 gneE1 gneE4 gneE9"/>
    </vehicle>
    <vehicle id="124" depart="49.60">
        <route edges="-gneE6 -gneE3 gneE0"/>
    </vehicle>
    <vehicle id="134" depart="53.60">
        <route edges="-gneE16 -gneE12 -gneE9 -gneE4 -gneE1 gneE3 gneE6"/>
    </vehicle>
    <vehicle id="136" depart="54.40">
        <route edges="-gneE7 -gneE2 gneE0 gneE5"/>
    </vehicle>
    <vehicle id="137" depart="54.80">
        <route edges="-gneE12 -gneE9"/>
    </vehicle>
    <vehicle id="139" depart="55.60">
        <route edges="-gneE1 gneE2"/>
    </vehicle>
    <vehicle id="143" depart="57.20">
        <route edges="-gneE2 gneE3"/>
    </vehicle>
    <vehicle id="151" depart="60.40">
        <route edges="-gneE0 gneE1 gneE4 gneE9 gneE11 gneE14"/>
    </vehicle>
    <vehicle id="166" depart="66.40">
        <route edges="-gneE11 -gneE9 -gneE4 -gneE1 gneE2 gneE7"/>
    </vehicle>
    <vehicle id="168" depart="67.20">
        <route edges="-gneE12"/>
    </vehicle>
    <vehicle id="172" depart="68.80">
        <route edges="gneE9 gneE11"/>
    </vehicle>
    <vehicle id="176" depart="70.40">
        <route edges="-gneE0 gneE1 gneE4 gneE9 gneE10 gneE13"/>
    </vehicle>
    <vehicle id="178" depart="71.20">
        <route edges="-gneE12 -gneE9 -gneE4"/>
    </vehicle>
    <vehicle id="180" depart="72.00">
        <route edges="gneE12"/>
    </vehicle>
    <vehicle id="182" depart="72.80">
        <route edges="-gneE16 -gneE12 -gneE9 -gneE4 -gneE1 gneE2"/>
    </vehicle>
    <vehicle id="187" depart="74.80">
        <route edges="gneE1 gneE4 gneE9 gneE11"/>
    </vehicle>
    <vehicle id="188" depart="75.20">
        <route edges="gneE12 gneE16"/>
    </vehicle>
    <vehicle id="190" depart="76.00">
        <route edges="-gneE11 -gneE9 -gneE4"/>
    </vehicle>
    <vehicle id="192" depart="76.80">
        <route edges="-gneE4 -gneE1 gneE2 gneE7"/>
    </vehicle>
    <vehicle id="196" depart="78.40">
        <route edges="gneE4 gneE9 gneE11"/>
    </vehicle>
    <vehicle id="205" depart="82.00">
        <route edges="-gneE12 -gneE9 -gneE4 -gneE1 gneE2"/>
    </vehicle>
    <vehicle id="207" depart="82.80">
        <route edges="gneE9 gneE11"/>
    </vehicle>
    <vehicle id="211" depart="84.40">
        <route edges="-gneE7 -gneE2"/>
    </vehicle>
    <vehicle id="212" depart="84.80">
        <route edges="-gneE16 -gneE12 -gneE9 -gneE4 -gneE1 gneE3 gneE6"/>
    </vehicle>
    <vehicle id="222" depart="88.80">
        <route edges="-gneE14 -gneE11"/>
    </vehicle>
    <vehicle id="226" depart="90.40">
        <route edges="gneE1 gneE4 gneE9"/>
    </vehicle>
    <vehicle id="229" depart="91.60">
        <route edges="gneE3 gneE6"/>
    </vehicle>
    <vehicle id="231" depart="92.40">
        <route edges="-gneE0 gneE2"/>
    </vehicle>
    <vehicle id="236" depart="94.40">
        <route edges="gneE12"/>
    </vehicle>
    <vehicle id="239" depart="95.60">
        <route edges="-gneE11 -gneE9 -gneE4"/>
    </vehicle>
    <vehicle id="241" depart="96.40">
        <route edges="-gneE2 gneE3 gneE6"/>
    </vehicle>
    <vehicle id="246" depart="98.40">
        <route edges="-gneE10 gneE11 gneE14"/>
    </vehicle>
    <vehicle id="247" depart="98.80">
        <route edges="-gneE12"/>
    </vehicle>
    <vehicle id="254" depart="101.60">
        <route edges="-gneE3 gneE0"/>
    </vehicle>
    <vehicle id="261" depart="104.40">
        <route edges="-gneE16 -gneE12 gneE10"/>
    </vehicle>
    <vehicle id="262" depart="104.80">
        <route edges="-gneE9 -gneE4 -gneE1 gneE2"/>
    </vehicle>
    <vehicle id="266" depart="106.40">
        <route edges="-gneE7 -gneE2"/>
    </vehicle>
    <vehicle id="273" depart="109.20">
        <route edges="-gneE3 gneE1 gneE4 gneE9 gneE10 gneE13"/>
    </vehicle>
    <vehicle id="281" depart="112.40">
        <route edges="-gneE11"/>
    </vehicle>
    <vehicle id="285" depart="114.00">
        <route edges="-gneE14 -gneE11 gneE12 gneE16"/>
    </vehicle>
    <vehicle id="286" depart="114.40">
        <route edges="-gneE1 gneE2 gneE7"/>
    </vehicle>
    <vehicle id="292" depart="116.80">
        <route edges="-gneE4 -gneE1 gneE2"/>
    </vehicle>
    <vehicle id="299" depart="119.60">
        <route edges="-gneE12 -gneE9 -gneE4 -gneE1 gneE3 gneE6"/>
    </vehicle>
    <vehicle id="302" depart="120.80">
        <route edges="-gneE7 -gneE2 gneE3 gneE6"/>
    </vehicle>
    <vehicle id="303" depart="121.20">
        <route edges="-gneE0 gneE2 gneE7"/>
    </vehicle>
    <vehicle id="304" depart="121.60">
        <route edges="-gneE7 -gneE2"/>
    </vehicle>
    <vehicle id="310" depart="124.00">
        <route edges="-gneE1 gneE2 gneE7"/>
    </vehicle>
    <vehicle id="316" depart="126.40">
        <route edges="-gneE2 gneE3"/>
    </vehicle>
    <vehicle id="319" depart="127.60">
        <route edges="-gneE3 gneE0"/>
    </vehicle>
    <vehicle id="322" depart="128.80">
        <route edges="-gneE4 -gneE1 gneE2 gneE7"/>
    </vehicle>
    <vehicle id="325" depart="130.00">
        <route edges="-gneE10 gneE11 gneE14"/>
    </vehicle>
    <vehicle id="329" depart="131.60">
        <route edges="-gneE16 -gneE12"/>
    </vehicle>
    <vehicle id="330" depart="132.00">
        <route edges="-gneE12 -gneE9"/>
    </vehicle>
    <vehicle id="332" depart="132.80">
        <route edges="-gneE10 gneE12"/>
    </vehicle>
    <vehicle id="340" depart="136.00">
        <route edges="-gneE3 gneE1 gneE4"/>
    </vehicle>
    <vehicle id="341" depart="136.40">
        <route edges="gneE1 gneE4 gneE9 gneE10"/>
    </vehicle>
    <vehicle id="342" depart="136.80">
        <route edges="-gneE9 -gneE4 -gneE1 gneE2 gneE7"/>
    </vehicle>
    <vehicle id="344" depart="137.60">
        <route edges="-gneE9"/>
    </vehicle>
    <vehicle id="346" depart="138.40">
        <route edges="-gneE16 -gneE12 -gneE9 -gneE4 -gneE1"/>
    </vehicle>
    <vehicle id="355" depart="142.00">
        <route edges="-gneE1"/>
    </vehicle>
    <vehicle id="357" depart="142.80">
        <route edges="-gneE13 -gneE10 gneE12 gneE16"/>
    </vehicle>
    <vehicle id="359" depart="143.60">
        <route edges="-gneE12 -gneE9 -gneE4"/>
    </vehicle>
    <vehicle id="360" depart="144.00">
        <route edges="gneE3 gneE6"/>
    </vehicle>
    <vehicle id="362" depart="144.80">
        <route edges="-gneE10 gneE11 gneE14"/>
    </vehicle>
    <vehicle id="363" depart="145.20">
        <route edges="-gneE10"/>
    </vehicle>
    <vehicle id="372" depart="148.80">
        <route edges="gneE9 gneE10"/>
    </vehicle>
    <vehicle id="382" depart="152.80">
        <route edges="gneE4 gneE9 gneE11"/>
    </vehicle>
    <vehicle id="389" depart="155.60">
        <route edges="gneE12"/>
    </vehicle>
    <vehicle id="390" depart="156.00">
        <route edges="-gneE11 gneE12 gneE16"/>
    </vehicle>
    <vehicle id="392" depart="156.80">
        <route edges="-gneE3 gneE1 gneE4 gneE9 gneE11 gneE14"/>
    </vehicle>
    <vehicle id="403" depart="161.20">
        <route edges="gneE0 gneE5"/>
    </vehicle>
    <vehicle id="406" depart="162.40">
        <route edges="-gneE11 -gneE9 -gneE4 -gneE1 gneE3 gneE6"/>
    </vehicle>
    <vehicle id="408" depart="163.20">
        <route edges="-gneE12 -gneE9 -gneE4"/>
    </vehicle>
    <vehicle id="412" depart="164.80">
        <route edges="-gneE7 -gneE2"/>
    </vehicle>
    <vehicle id="417" depart="166.80">
        <route edges="gneE10"/>
    </vehicle>
    <vehicle id="420" depart="168.00">
        <route edges="-gneE6 -gneE3 gneE0"/>
    </vehicle>
    <vehicle id="421" depart="168.40">
        <route edges="-gneE0 gneE1 gneE4 gneE9 gneE11 gneE14"/>
    </vehicle>
    <vehicle id="424" depart="169.60">
        <route edges="-gneE14 -gneE11 -gneE9 -gneE4 -gneE1 gneE2 gneE7"/>
    </vehicle>
    <vehicle id="425" depart="170.00">
        <route edges="-gneE11 -gneE9 -gneE4 -gneE1 gneE2 gneE7"/>
    </vehicle>
    <vehicle id="426" depart="170.40">
        <route edges="-gneE16 -gneE12"/>
    </vehicle>
    <vehicle id="429" depart="171.60">
        <route edges="-gneE0 gneE1 gneE4 gneE9"/>
    </vehicle>
    <vehicle id="430" depart="172.00">
        <route edges="-gneE7 -gneE2 gneE0 gneE5"/>
    </vehicle>
    <vehicle id="431" depart="172.40">
        <route edges="-gneE14 -gneE11 -gneE9 -gneE4 -gneE1 gneE3"/>
    </vehicle>
    <vehicle id="444" depart="177.60">
        <route edges="gneE1 gneE4 gneE9 gneE10 gneE13"/>
    </vehicle>
    <vehicle id="445" depart="178.00">
        <route edges="gneE4"/>
    </vehicle>
    <vehicle id="447" depart="178.80">
        <route edges="gneE1 gneE4 gneE9 gneE10 gneE13"/>
    </vehicle>
    <vehicle id="448" depart="179.20">
        <route edges="-gneE12 gneE10 gneE13"/>
    </vehicle>
    <vehicle id="449" depart="179.60">
        <route edges="-gneE2 gneE3"/>
    </vehicle>
    <vehicle id="451" depart="180.40">
        <route edges="-gneE4 -gneE1 gneE2"/>
    </vehicle>
    <vehicle id="457" depart="182.80">
        <route edges="-gneE5 -gneE0 gneE1"/>
    </vehicle>
    <vehicle id="460" depart="184.00">
        <route edges="-gneE12 -gneE9"/>
    </vehicle>
    <vehicle id="461" depart="184.40">
        <route edges="-gneE3 gneE1 gneE4 gneE9 gneE11"/>
    </vehicle>
    <vehicle id="468" depart="187.20">
        <route edges="-gneE5 -gneE0 gneE2 gneE7"/>
    </vehicle>
    <vehicle id="470" depart="188.00">
        <route edges="-gneE10"/>
    </vehicle>
    <vehicle id="477" depart="190.80">
        <route edges="-gneE10 gneE12 gneE16"/>
    </vehicle>
    <vehicle id="482" depart="192.80">
        <route edges="-gneE5 -gneE0 gneE1 gneE4 gneE9 gneE11"/>
    </vehicle>
    <vehicle id="484" depart="193.60">
        <route edges="-gneE7 -gneE2 gneE0 gneE5"/>
    </vehicle>
    <vehicle id="488" depart="195.20">
        <route edges="-gneE11 -gneE9 -gneE4 -gneE1 gneE2"/>
    </vehicle>
    <vehicle id="490" depart="196.00">
        <route edges="-gneE3 gneE1 gneE4"/>
    </vehicle>
    <vehicle id="491" depart="196.40">
        <route edges="-gneE5 -gneE0 gneE1 gneE4 gneE9 gneE10 gneE13"/>
    </vehicle>
    <vehicle id="493" depart="197.20">
        <route edges="-gneE3 gneE1 gneE4"/>
    </vehicle>
    <vehicle id="494" depart="197.60">
        <route edges="-gneE5 -gneE0 gneE1 gneE4 gneE9 gneE10 gneE13"/>
    </vehicle>
    <vehicle id="506" depart="202.40">
        <route edges="-gneE5 -gneE0 gneE1"/>
    </vehicle>
    <vehicle id="509" depart="203.60">
        <route edges="-gneE3 gneE1 gneE4 gneE9 gneE10"/>
    </vehicle>
    <vehicle id="511" depart="204.40">
        <route edges="gneE9 gneE10"/>
    </vehicle>
    <vehicle id="512" depart="204.80">
        <route edges="gneE4 gneE9"/>
    </vehicle>
    <vehicle id="513" depart="205.20">
        <route edges="gneE10"/>
    </vehicle>
    <vehicle id="527" depart="210.80">
        <route edges="-gneE5 -gneE0"/>
    </vehicle>
    <vehicle id="529" depart="211.60">
        <route edges="-gneE16 -gneE12 gneE10"/>
    </vehicle>
    <vehicle id="530" depart="212.00">
        <route edges="gneE1 gneE4"/>
    </vehicle>
    <vehicle id="535" depart="214.00">
        <route edges="-gneE14 -gneE11 -gneE9 -gneE4"/>
    </vehicle>
    <vehicle id="536" depart="214.40">
        <route edges="-gneE16 -gneE12 gneE10"/>
    </vehicle>
    <vehicle id="537" depart="214.80">
        <route edges="-gneE6 -gneE3 gneE1"/>
    </vehicle>
    <vehicle id="538" depart="215.20">
        <route edges="-gneE3 gneE0"/>
    </vehicle>
    <vehicle id="541" depart="216.40">
        <route edges="-gneE6 -gneE3 gneE1"/>
    </vehicle>
    <vehicle id="543" depart="217.20">
        <route edges="-gneE12 -gneE9 -gneE4"/>
    </vehicle>
    <vehicle id="544" depart="217.60">
        <route edges="-gneE14 -gneE11 -gneE9 -gneE4 -gneE1 gneE3 gneE6"/>
    </vehicle>
    <vehicle id="546" depart="218.40">
        <route edges="-gneE2"/>
    </vehicle>
    <vehicle id="548" depart="219.20">
        <route edges="-gneE1 gneE2 gneE7"/>
    </vehicle>
    <vehicle id="549" depart="219.60">
        <route edges="-gneE3 gneE0 gneE5"/>
    </vehicle>
    <vehicle id="559" depart="223.60">
        <route edges="-gneE11 -gneE9 -gneE4 -gneE1 gneE2 gneE7"/>
    </vehicle>
    <vehicle id="564" depart="225.60">
        <route edges="-gneE11 gneE12 gneE16"/>
    </vehicle>
    <vehicle id="566" depart="226.40">
        <route edges="-gneE9 -gneE4"/>
    </vehicle>
    <vehicle id="574" depart="229.60">
        <route edges="-gneE13 -gneE10 gneE11"/>
    </vehicle>
    <vehicle id="579" depart="231.60">
        <route edges="-gneE12 gneE10 gneE13"/>
    </vehicle>
    <vehicle id="589" depart="235.60">
        <route edges="-gneE5 -gneE0 gneE1 gneE4"/>
    </vehicle>
    <vehicle id="591" depart="236.40">
        <route edges="-gneE9 -gneE4 -gneE1 gneE3"/>
    </vehicle>
    <vehicle id="592" depart="236.80">
        <route edges="-gneE5 -gneE0 gneE2"/>
    </vehicle>
    <vehicle id="597" depart="238.80">
        <route edges="gneE11"/>
    </vehicle>
    <vehicle id="600" depart="240.00">
        <route edges="gneE1"/>
    </vehicle>
    <vehicle id="606" depart="242.40">
        <route edges="-gneE12 -gneE9 -gneE4 -gneE1 gneE2 gneE7"/>
    </vehicle>
    <vehicle id="613" depart="245.20">
        <route edges="-gneE0 gneE1 gneE4 gneE9 gneE10"/>
    </vehicle>
    <vehicle id="618" depart="247.20">
        <route edges="-gneE0 gneE1 gneE4 gneE9 gneE10"/>
    </vehicle>
    <vehicle id="619" depart="247.60">
        <route edges="-gneE1"/>
    </vehicle>
    <vehicle id="621" depart="248.40">
        <route edges="gneE1 gneE4 gneE9 gneE11"/>
    </vehicle>
    <vehicle id="622" depart="248.80">
        <route edges="gneE9 gneE10 gneE13"/>
    </vehicle>
    <vehicle id="625" depart="250.00">
        <route edges="-gneE14 -gneE11 -gneE9 -gneE4 -gneE1 gneE2 gneE7"/>
    </vehicle>
    <vehicle id="626" depart="250.40">
        <route edges="-gneE12 gneE10"/>
    </vehicle>
    <vehicle id="630" depart="252.00">
        <route edges="-gneE5 -gneE0 gneE1"/>
    </vehicle>
    <vehicle id="633" depart="253.20">
        <route edges="gneE1 gneE4 gneE9 gneE10 gneE13"/>
    </vehicle>
    <vehicle id="634" depart="253.60">
        <route edges="gneE3"/>
    </vehicle>
    <vehicle id="636" depart="254.40">
        <route edges="-gneE16 -gneE12 gneE10"/>
    </vehicle>
    <vehicle id="640" depart="256.00">
        <route edges="-gneE3 gneE1 gneE4 gneE9 gneE11"/>
    </vehicle>
    <vehicle id="652" depart="260.80">
        <route edges="-gneE14 -gneE11 -gneE9 -gneE4 -gneE1"/>
    </vehicle>
    <vehicle id="653" depart="261.20">
        <route edges="-gneE0 gneE1 gneE4 gneE9 gneE11"/>
    </vehicle>
    <vehicle id="655" depart="262.00">
        <route edges="-gneE3 gneE1 gneE4 gneE9 gneE10"/>
    </vehicle>
    <vehicle id="661" depart="264.40">
        <route edges="-gneE3 gneE1"/>
    </vehicle>
    <vehicle id="662" depart="264.80">
        <route edges="-gneE4 -gneE1 gneE3"/>
    </vehicle>
    <vehicle id="665" depart="266.00">
        <route edges="-gneE0 gneE1 gneE4 gneE9 gneE10 gneE13"/>
    </vehicle>
    <vehicle id="669" depart="267.60">
        <route edges="-gneE6 -gneE3 gneE1 gneE4 gneE9"/>
    </vehicle>
    <vehicle id="675" depart="270.00">
        <route edges="-gneE9 -gneE4 -gneE1"/>
    </vehicle>
    <vehicle id="679" depart="271.60">
        <route edges="-gneE4 -gneE1"/>
    </vehicle>
    <vehicle id="692" depart="276.80">
        <route edges="-gneE6 -gneE3"/>
    </vehicle>
    <vehicle id="693" depart="277.20">
        <route edges="-gneE1"/>
    </vehicle>
    <vehicle id="694" depart="277.60">
        <route edges="-gneE12 -gneE9 -gneE4"/>
    </vehicle>
    <vehicle id="699" depart="279.60">
        <route edges="gneE2"/>
    </vehicle>
    <vehicle id="704" depart="281.60">
        <route edges="-gneE14 -gneE11 -gneE9 -gneE4 -gneE1"/>
    </vehicle>
    <vehicle id="716" depart="286.40">
        <route edges="-gneE11 gneE12 gneE16"/>
    </vehicle>
    <vehicle id="717" depart="286.80">
        <route edges="-gneE14 -gneE11 gneE12 gneE16"/>
    </vehicle>
    <vehicle id="722" depart="288.80">
        <route edges="-gneE9 -gneE4"/>
    </vehicle>
    <vehicle id="730" depart="292.00">
        <route edges="-gneE5 -gneE0 gneE1 gneE4 gneE9 gneE10"/>
    </vehicle>
    <vehicle id="731" depart="292.40">
        <route edges="-gneE0 gneE1 gneE4 gneE9 gneE11 gneE14"/>
    </vehicle>
    <vehicle id="739" depart="295.60">
        <route edges="-gneE5 -gneE0"/>
    </vehicle>
    <vehicle id="741" depart="296.40">
        <route edges="-gneE5 -gneE0 gneE2 gneE7"/>
    </vehicle>
    <vehicle id="743" depart="297.20">
        <route edges="-gneE16 -gneE12 -gneE9 -gneE4 -gneE1 gneE2 gneE7"/>
    </vehicle>
    <vehicle id="744" depart="297.60">
        <route edges="-gneE4 -gneE1 gneE3"/>
    </vehicle>
    <vehicle id="746" depart="298.40">
        <route edges="gneE9 gneE11"/>
    </vehicle>
    <vehicle id="750" depart="300.00">
        <route edges="-gneE1 gneE3 gneE6"/>
    </vehicle>
    <vehicle id="751" depart="300.40">
        <route edges="-gneE7 -gneE2 gneE3 gneE6"/>
    </vehicle>
    <vehicle id="752" depart="300.80">
        <route edges="-gneE7 -gneE2 gneE3 gneE6"/>
    </vehicle>
    <vehicle id="761" depart="304.40">
        <route edges="-gneE6 -gneE3"/>
    </vehicle>
    <vehicle id="763" depart="305.20">
        <route edges="-gneE3 gneE1 gneE4 gneE9 gneE11 gneE14"/>
    </vehicle>
    <vehicle id="767" depart="306.80">
        <route edges="-gneE3 gneE0 gneE5"/>
    </vehicle>
    <vehicle id="769" depart="307.60">
        <route edges="-gneE0 gneE1 gneE4"/>
    </vehicle>
    <vehicle id="770" depart="308.00">
        <route edges="-gneE3 gneE0 gneE5"/>
    </vehicle>
    <vehicle id="775" depart="310.00">
        <route edges="-gneE2 gneE0"/>
    </vehicle>
    <vehicle id="791" depart="316.40">
        <route edges="gneE0"/>
    </vehicle>
    <vehicle id="792" depart="316.80">
        <route edges="-gneE16 -gneE12 -gneE9"/>
    </vehicle>
    <vehicle id="799" depart="319.60">
        <route edges="-gneE2 gneE3 gneE6"/>
    </vehicle>
    <vehicle id="803" depart="321.20">
        <route edges="-gneE14 -gneE11 -gneE9 -gneE4 -gneE1 gneE2 gneE7"/>
    </vehicle>
    <vehicle id="806" depart="322.40">
        <route edges="-gneE7 -gneE2 gneE0"/>
    </vehicle>
    <vehicle id="807" depart="322.80">
        <route edges="-gneE11 -gneE9 -gneE4 -gneE1"/>
    </vehicle>
    <vehicle id="808" depart="323.20">
        <route edges="-gneE0 gneE1"/>
    </vehicle>
    <vehicle id="811" depart="324.40">
        <route edges="-gneE16 -gneE12 -gneE9 -gneE4 -gneE1 gneE2 gneE7"/>
    </vehicle>
    <vehicle id="823" depart="329.20">
        <route edges="-gneE11 -gneE9 -gneE4 -gneE1 gneE2"/>
    </vehicle>
    <vehicle id="825" depart="330.00">
        <route edges="-gneE13 -gneE10"/>
    </vehicle>
    <vehicle id="828" depart="331.20">
        <route edges="-gneE16 -gneE12"/>
    </vehicle>
    <vehicle id="832" depart="332.80">
        <route edges="gneE0 gneE5"/>
    </vehicle>
    <vehicle id="833" depart="333.20">
        <route edges="-gneE11 -gneE9 -gneE4 -gneE1 gneE3 gneE6"/>
    </vehicle>
    <vehicle id="844" depart="337.60">
        <route edges="-gneE2 gneE0"/>
    </vehicle>
    <vehicle id="845" depart="338.00">
        <route edges="-gneE7 -gneE2 gneE0"/>
    </vehicle>
    <vehicle id="848" depart="339.20">
        <route edges="gneE1"/>
    </vehicle>
    <vehicle id="851" depart="340.40">
        <route edges="-gneE4 -gneE1 gneE3 gneE6"/>
    </vehicle>
    <vehicle id="853" depart="341.20">
        <route edges="-gneE11"/>
    </vehicle>
    <vehicle id="857" depart="342.80">
        <route edges="-gneE5 -gneE0 gneE2"/>
    </vehicle>
    <vehicle id="859" depart="343.60">
        <route edges="-gneE16 -gneE12 -gneE9 -gneE4 -gneE1 gneE2"/>
    </vehicle>
    <vehicle id="860" depart="344.00">
        <route edges="-gneE6 -gneE3"/>
    </vehicle>
    <vehicle id="863" depart="345.20">
        <route edges="-gneE6 -gneE3 gneE1 gneE4 gneE9 gneE11"/>
    </vehicle>
    <vehicle id="868" depart="347.20">
        <route edges="-gneE2 gneE0 gneE5"/>
    </vehicle>
    <vehicle id="869" depart="347.60">
        <route edges="-gneE1 gneE2"/>
    </vehicle>
    <vehicle id="871" depart="348.40">
        <route edges="-gneE14 -gneE11 -gneE9 -gneE4 -gneE1 gneE3 gneE6"/>
    </vehicle>
    <vehicle id="880" depart="352.00">
        <route edges="gneE9 gneE11"/>
    </vehicle>
    <vehicle id="883" depart="353.20">
        <route edges="-gneE11 -gneE9 -gneE4 -gneE1 gneE2"/>
    </vehicle>
    <vehicle id="887" depart="354.80">
        <route edges="-gneE6 -gneE3 gneE1 gneE4 gneE9 gneE10"/>
    </vehicle>
    <vehicle id="889" depart="355.60">
        <route edges="-gneE5 -gneE0 gneE2"/>
    </vehicle>
    <vehicle id="891" depart="356.40">
        <route edges="-gneE14 -gneE11 -gneE9 -gneE4"/>
    </vehicle>
    <vehicle id="892" depart="356.80">
        <route edges="gneE4"/>
    </vehicle>
    <vehicle id="904" depart="361.60">
        <route edges="-gneE11 -gneE9 -gneE4 -gneE1 gneE2 gneE7"/>
    </vehicle>
    <vehicle id="905" depart="362.00">
        <route edges="-gneE0 gneE1 gneE4 gneE9 gneE10 gneE13"/>
    </vehicle>
    <vehicle id="915" depart="366.00">
        <route edges="-gneE4 -gneE1 gneE3"/>
    </vehicle>
    <vehicle id="918" depart="367.20">
        <route edges="-gneE0 gneE1 gneE4 gneE9"/>
    </vehicle>
    <vehicle id="919" depart="367.60">
        <route edges="-gneE16 -gneE12"/>
    </vehicle>
    <vehicle id="923" depart="369.20">
        <route edges="-gneE9"/>
    </vehicle>
    <vehicle id="924" depart="369.60">
        <route edges="gneE1 gneE4"/>
    </vehicle>
    <vehicle id="929" depart="371.60">
        <route edges="-gneE9 -gneE4 -gneE1 gneE3 gneE6"/>
    </vehicle>
    <vehicle id="933" depart="373.20">
        <route edges="-gneE5 -gneE0 gneE1 gneE4 gneE9 gneE11"/>
    </vehicle>
    <vehicle id="934" depart="373.60">
        <route edges="-gneE9 -gneE4 -gneE1 gneE2 gneE7"/>
    </vehicle>
    <vehicle id="935" depart="374.00">
        <route edges="gneE2 gneE7"/>
    </vehicle>
    <vehicle id="941" depart="376.40">
        <route edges="-gneE5 -gneE0 gneE1 gneE4 gneE9 gneE11"/>
    </vehicle>
    <vehicle id="943" depart="377.20">
        <route edges="-gneE13 -gneE10 gneE11"/>
    </vehicle>
    <vehicle id="944" depart="377.60">
        <route edges="-gneE10 gneE11 gneE14"/>
    </vehicle>
    <vehicle id="951" depart="380.40">
        <route edges="gneE1 gneE4 gneE9 gneE11"/>
    </vehicle>
    <vehicle id="955" depart="382.00">
        <route edges="-gneE9 -gneE4 -gneE1 gneE2"/>
    </vehicle>
    <vehicle id="957" depart="382.80">
        <route edges="-gneE0 gneE1 gneE4 gneE9 gneE10"/>
    </vehicle>
    <vehicle id="963" depart="385.20">
        <route edges="-gneE1"/>
    </vehicle>
    <vehicle id="970" depart="388.00">
        <route edges="gneE11 gneE14"/>
    </vehicle>
    <vehicle id="971" depart="388.40">
        <route edges="-gneE6 -gneE3"/>
    </vehicle>
    <vehicle id="973" depart="389.20">
        <route edges="gneE12"/>
    </vehicle>
    <vehicle id="982" depart="392.80">
        <route edges="-gneE11 -gneE9 -gneE4 -gneE1"/>
    </vehicle>
    <vehicle id="993" depart="397.20">
        <route edges="-gneE12 -gneE9"/>
    </vehicle>
    <vehicle id="996" depart="398.40">
        <route edges="gneE1 gneE4 gneE9 gneE10 gneE13"/>
    </vehicle>
    <vehicle id="998" depart="399.20">
        <route edges="-gneE4 -gneE1"/>
    </vehicle>
    <vehicle id="1010" depart="404.00">
        <route edges="-gneE12 -gneE9 -gneE4"/>
    </vehicle>
    <vehicle id="1013" depart="405.20">
        <route edges="-gneE6 -gneE3 gneE1 gneE4"/>
    </vehicle>
    <vehicle id="1015" depart="406.00">
        <route edges="-gneE12 -gneE9 -gneE4 -gneE1"/>
    </vehicle>
    <vehicle id="1018" depart="407.20">
        <route edges="gneE12 gneE16"/>
    </vehicle>
    <vehicle id="1024" depart="409.60">
        <route edges="-gneE12 -gneE9 -gneE4 -gneE1 gneE2"/>
    </vehicle>
    <vehicle id="1036" depart="414.40">
        <route edges="-gneE12 -gneE9 -gneE4"/>
    </vehicle>
    <vehicle id="1040" depart="416.00">
        <route edges="-gneE14 -gneE11 -gneE9 -gneE4 -gneE1 gneE2"/>
    </vehicle>
    <vehicle id="1044" depart="417.60">
        <route edges="-gneE0 gneE2 gneE7"/>
    </vehicle>
    <vehicle id="1048" depart="419.20">
        <route edges="-gneE9 -gneE4 -gneE1 gneE2 gneE7"/>
    </vehicle>
    <vehicle id="1049" depart="419.60">
        <route edges="gneE4 gneE9 gneE11"/>
    </vehicle>
    <vehicle id="1052" depart="420.80">
        <route edges="-gneE11 -gneE9 -gneE4"/>
    </vehicle>
    <vehicle id="1056" depart="422.40">
        <route edges="gneE1 gneE4 gneE9 gneE10"/>
    </vehicle>
    <vehicle id="1059" depart="423.60">
        <route edges="-gneE0 gneE1 gneE4"/>
    </vehicle>
    <vehicle id="1065" depart="426.00">
        <route edges="-gneE5 -gneE0 gneE2 gneE7"/>
    </vehicle>
    <vehicle id="1066" depart="426.40">
        <route edges="-gneE2 gneE3 gneE6"/>
    </vehicle>
    <vehicle id="1069" depart="427.60">
        <route edges="-gneE7 -gneE2 gneE0"/>
    </vehicle>
    <vehicle id="1070" depart="428.00">
        <route edges="-gneE14 -gneE11 -gneE9 -gneE4"/>
    </vehicle>
    <vehicle id="1077" depart="430.80">
        <route edges="-gneE11 -gneE9 -gneE4 -gneE1 gneE3 gneE6"/>
    </vehicle>
    <vehicle id="1082" depart="432.80">
        <route edges="-gneE12 -gneE9 -gneE4 -gneE1"/>
    </vehicle>
    <vehicle id="1083" depart="433.20">
        <route edges="-gneE6 -gneE3 gneE1 gneE4 gneE9"/>
    </vehicle>
    <vehicle id="1090" depart="436.00">
        <route edges="-gneE10 gneE11"/>
    </vehicle>
    <vehicle id="1093" depart="437.20">
        <route edges="-gneE9"/>
    </vehicle>
    <vehicle id="1099" depart="439.60">
        <route edges="-gneE5 -gneE0 gneE2"/>
    </vehicle>
    <vehicle id="1110" depart="444.00">
        <route edges="-gneE9 -gneE4"/>
    </vehicle>
    <vehicle id="1116" depart="446.40">
        <route edges="-gneE16 -gneE12 -gneE9"/>
    </vehicle>