<?xml version="1.0" encoding="UTF-8"?>

<!-- generated on 2021-09-29 19:30:52 by Eclipse SUMO duarouter Version 1.9.2
<configuration xmlns:xsi="http://www.w3.org/2001/XMLSchema-instance" xsi:noNamespaceSchemaLocation="http://sumo.dlr.de/xsd/duarouterConfiguration.xsd">

    <input>
        <net-file value="/home/sonic/Desktop/nets/case03/intersection.net.xml"/>
        <route-files value="trips.trips.xml"/>
    </input>

    <output>
        <output-file value="intersection_random39.rou.xml"/>
        <alternatives-output value="intersection_random39.rou.alt.xml"/>
    </output>

    <time>
        <begin value="0"/>
        <end value="3600.0"/>
    </time>

    <report>
        <no-warnings value="true"/>
        <ignore-errors value="true"/>
        <no-step-log value="true"/>
    </report>

</configuration>
-->

<routes xmlns:xsi="http://www.w3.org/2001/XMLSchema-instance" xsi:noNamespaceSchemaLocation="http://sumo.dlr.de/xsd/routes_file.xsd">
    <vehicle id="0" depart="0.00">
        <route edges="-gneE14 -gneE11 gneE12"/>
    </vehicle>
    <vehicle id="2" depart="0.80">
        <route edges="-gneE1 gneE3"/>
    </vehicle>
    <vehicle id="10" depart="4.00">
        <route edges="-gneE16 -gneE12 -gneE9"/>
    </vehicle>
    <vehicle id="20" depart="8.00">
        <route edges="gneE10"/>
    </vehicle>
    <vehicle id="21" depart="8.40">
        <route edges="-gneE0 gneE1 gneE4 gneE9 gneE10 gneE13"/>
    </vehicle>
    <vehicle id="30" depart="12.00">
        <route edges="-gneE12 -gneE9"/>
    </vehicle>
    <vehicle id="34" depart="13.60">
        <route edges="gneE3"/>
    </vehicle>
    <vehicle id="38" depart="15.20">
        <route edges="-gneE11 -gneE9 -gneE4 -gneE1 gneE3 gneE6"/>
    </vehicle>
    <vehicle id="44" depart="17.60">
        <route edges="-gneE5 -gneE0 gneE1 gneE4 gneE9"/>
    </vehicle>
    <vehicle id="45" depart="18.00">
        <route edges="-gneE5 -gneE0 gneE1 gneE4 gneE9 gneE10"/>
    </vehicle>
    <vehicle id="56" depart="22.40">
        <route edges="gneE2 gneE7"/>
    </vehicle>
    <vehicle id="59" depart="23.60">
        <route edges="-gneE16 -gneE12 -gneE9 -gneE4 -gneE1 gneE2 gneE7"/>
    </vehicle>
    <vehicle id="61" depart="24.40">
        <route edges="-gneE6 -gneE3 gneE1 gneE4 gneE9 gneE11 gneE14"/>
    </vehicle>
    <vehicle id="63" depart="25.20">
        <route edges="-gneE12 -gneE9"/>
    </vehicle>
    <vehicle id="67" depart="26.80">
        <route edges="-gneE7 -gneE2 gneE3 gneE6"/>
    </vehicle>
    <vehicle id="68" depart="27.20">
        <route edges="gneE9 gneE10"/>
    </vehicle>
    <vehicle id="72" depart="28.80">
        <route edges="gneE2"/>
    </vehicle>
    <vehicle id="75" depart="30.00">
        <route edges="-gneE4 -gneE1 gneE2"/>
    </vehicle>
    <vehicle id="76" depart="30.40">
        <route edges="gneE1 gneE4"/>
    </vehicle>
    <vehicle id="78" depart="31.20">
        <route edges="-gneE7 -gneE2 gneE0 gneE5"/>
    </vehicle>
    <vehicle id="80" depart="32.00">
        <route edges="-gneE4 -gneE1"/>
    </vehicle>
    <vehicle id="81" depart="32.40">
        <route edges="-gneE3 gneE1 gneE4 gneE9 gneE11"/>
    </vehicle>
    <vehicle id="83" depart="33.20">
        <route edges="-gneE0 gneE1"/>
    </vehicle>
    <vehicle id="84" depart="33.60">
        <route edges="-gneE13 -gneE10 gneE11 gneE14"/>
    </vehicle>
    <vehicle id="86" depart="34.40">
        <route edges="-gneE3 gneE1 gneE4 gneE9 gneE11"/>
    </vehicle>
    <vehicle id="90" depart="36.00">
        <route edges="gneE10"/>
    </vehicle>
    <vehicle id="91" depart="36.40">
        <route edges="-gneE11 -gneE9"/>
    </vehicle>
    <vehicle id="94" depart="37.60">
        <route edges="gneE1 gneE4 gneE9 gneE10 gneE13"/>
    </vehicle>
    <vehicle id="98" depart="39.20">
        <route edges="-gneE9 -gneE4 -gneE1 gneE3"/>
    </vehicle>
    <vehicle id="104" depart="41.60">
        <route edges="gneE2 gneE7"/>
    </vehicle>
    <vehicle id="107" depart="42.80">
        <route edges="-gneE16 -gneE12 gneE10"/>
    </vehicle>
    <vehicle id="108" depart="43.20">
        <route edges="-gneE13 -gneE10 gneE11 gneE14"/>
    </vehicle>
    <vehicle id="112" depart="44.80">
        <route edges="-gneE14 -gneE11 -gneE9"/>
    </vehicle>
    <vehicle id="116" depart="46.40">
        <route edges="-gneE13 -gneE10"/>
    </vehicle>
    <vehicle id="117" depart="46.80">
        <route edges="-gneE1 gneE2"/>
    </vehicle>
    <vehicle id="119" depart="47.60">
        <route edges="-gneE10 gneE12 gneE16"/>
    </vehicle>
    <vehicle id="125" depart="50.00">
        <route edges="-gneE4 -gneE1 gneE2 gneE7"/>
    </vehicle>
    <vehicle id="129" depart="51.60">
        <route edges="gneE1 gneE4"/>
    </vehicle>
    <vehicle id="130" depart="52.00">
        <route edges="-gneE3"/>
    </vehicle>
    <vehicle id="134" depart="53.60">
        <route edges="-gneE9"/>
    </vehicle>
    <vehicle id="136" depart="54.40">
        <route edges="-gneE11 -gneE9 -gneE4 -gneE1 gneE2 gneE7"/>
    </vehicle>
    <vehicle id="140" depart="56.00">
        <route edges="gneE1 gneE4 gneE9 gneE11 gneE14"/>
    </vehicle>
    <vehicle id="141" depart="56.40">
        <route edges="-gneE16 -gneE12 -gneE9 -gneE4 -gneE1"/>
    </vehicle>
    <vehicle id="146" depart="58.40">
        <route edges="-gneE2"/>
    </vehicle>
    <vehicle id="149" depart="59.60">
        <route edges="-gneE7 -gneE2 gneE0"/>
    </vehicle>
    <vehicle id="150" depart="60.00">
        <route edges="-gneE5 -gneE0 gneE1"/>
    </vehicle>
    <vehicle id="151" depart="60.40">
        <route edges="gneE2 gneE7"/>
    </vehicle>
    <vehicle id="159" depart="63.60">
        <route edges="-gneE10 gneE11"/>
    </vehicle>
    <vehicle id="166" depart="66.40">
        <route edges="-gneE11 -gneE9 -gneE4 -gneE1 gneE3"/>
    </vehicle>
    <vehicle id="171" depart="68.40">
        <route edges="-gneE1 gneE2 gneE7"/>
    </vehicle>
    <vehicle id="173" depart="69.20">
        <route edges="-gneE11 gneE12 gneE16"/>
    </vehicle>
    <vehicle id="174" depart="69.60">
        <route edges="gneE1 gneE4"/>
    </vehicle>
    <vehicle id="177" depart="70.80">
        <route edges="-gneE4 -gneE1 gneE2"/>
    </vehicle>
    <vehicle id="178" depart="71.20">
        <route edges="-gneE9 -gneE4 -gneE1 gneE3 gneE6"/>
    </vehicle>
    <vehicle id="179" depart="71.60">
        <route edges="-gneE10 gneE11"/>
    </vehicle>
    <vehicle id="182" depart="72.80">
        <route edges="-gneE12 -gneE9 -gneE4 -gneE1 gneE2"/>
    </vehicle>
    <vehicle id="188" depart="75.20">
        <route edges="-gneE11 -gneE9 -gneE4 -gneE1 gneE2 gneE7"/>
    </vehicle>
    <vehicle id="190" depart="76.00">
        <route edges="gneE3"/>
    </vehicle>
    <vehicle id="197" depart="78.80">
        <route edges="gneE3 gneE6"/>
    </vehicle>
    <vehicle id="199" depart="79.60">
        <route edges="-gneE11 -gneE9 -gneE4 -gneE1 gneE2"/>
    </vehicle>
    <vehicle id="200" depart="80.00">
        <route edges="-gneE10 gneE12 gneE16"/>
    </vehicle>
    <vehicle id="202" depart="80.80">
        <route edges="-gneE11 -gneE9 -gneE4 -gneE1 gneE3"/>
    </vehicle>
    <vehicle id="208" depart="83.20">
        <route edges="-gneE12 -gneE9"/>
    </vehicle>
    <vehicle id="209" depart="83.60">
        <route edges="-gneE14 -gneE11 -gneE9 -gneE4"/>
    </vehicle>
    <vehicle id="212" depart="84.80">
        <route edges="-gneE16 -gneE12 -gneE9 -gneE4 -gneE1"/>
    </vehicle>
    <vehicle id="216" depart="86.40">
        <route edges="-gneE0 gneE2"/>
    </vehicle>
    <vehicle id="235" depart="94.00">
        <route edges="-gneE16 -gneE12 gneE10"/>
    </vehicle>
    <vehicle id="238" depart="95.20">
        <route edges="-gneE2 gneE0 gneE5"/>
    </vehicle>
    <vehicle id="239" depart="95.60">
        <route edges="-gneE14 -gneE11 -gneE9 -gneE4 -gneE1 gneE2"/>
    </vehicle>
    <vehicle id="241" depart="96.40">
        <route edges="-gneE2 gneE0"/>
    </vehicle>
    <vehicle id="243" depart="97.20">
        <route edges="-gneE3 gneE0"/>
    </vehicle>
    <vehicle id="247" depart="98.80">
        <route edges="-gneE16 -gneE12 -gneE9 -gneE4 -gneE1 gneE3"/>
    </vehicle>
    <vehicle id="250" depart="100.00">
        <route edges="-gneE10 gneE11"/>
    </vehicle>
    <vehicle id="255" depart="102.00">
        <route edges="-gneE6 -gneE3 gneE1"/>
    </vehicle>
    <vehicle id="256" depart="102.40">
        <route edges="gneE9 gneE10 gneE13"/>
    </vehicle>
    <vehicle id="257" depart="102.80">
        <route edges="-gneE13 -gneE10 gneE11 gneE14"/>
    </vehicle>
    <vehicle id="264" depart="105.60">
        <route edges="-gneE12 gneE10"/>
    </vehicle>
    <vehicle id="266" depart="106.40">
        <route edges="-gneE6 -gneE3"/>
    </vehicle>
    <vehicle id="272" depart="108.80">
        <route edges="gneE3 gneE6"/>
    </vehicle>
    <vehicle id="275" depart="110.00">
        <route edges="gneE2"/>
    </vehicle>
    <vehicle id="276" depart="110.40">
        <route edges="-gneE1"/>
    </vehicle>
    <vehicle id="281" depart="112.40">
        <route edges="-gneE6 -gneE3 gneE1 gneE4"/>
    </vehicle>
    <vehicle id="282" depart="112.80">
        <route edges="-gneE3 gneE0"/>
    </vehicle>
    <vehicle id="285" depart="114.00">
        <route edges="-gneE9 -gneE4 -gneE1 gneE2"/>
    </vehicle>
    <vehicle id="289" depart="115.60">
        <route edges="gneE1 gneE4 gneE9 gneE11"/>
    </vehicle>
    <vehicle id="290" depart="116.00">
        <route edges="-gneE4 -gneE1 gneE3"/>
    </vehicle>
    <vehicle id="293" depart="117.20">
        <route edges="-gneE6 -gneE3 gneE0"/>
    </vehicle>
    <vehicle id="295" depart="118.00">
        <route edges="-gneE0 gneE1 gneE4 gneE9 gneE10"/>
    </vehicle>
    <vehicle id="297" depart="118.80">
        <route edges="gneE9 gneE10 gneE13"/>
    </vehicle>
    <vehicle id="306" depart="122.40">
        <route edges="gneE3"/>
    </vehicle>
    <vehicle id="307" depart="122.80">
        <route edges="gneE11 gneE14"/>
    </vehicle>
    <vehicle id="316" depart="126.40">
        <route edges="-gneE6 -gneE3 gneE1"/>
    </vehicle>
    <vehicle id="321" depart="128.40">
        <route edges="-gneE0 gneE1 gneE4 gneE9"/>
    </vehicle>
    <vehicle id="332" depart="132.80">
        <route edges="-gneE14 -gneE11"/>
    </vehicle>
    <vehicle id="334" depart="133.60">
        <route edges="gneE1 gneE4 gneE9 gneE10"/>
    </vehicle>
    <vehicle id="336" depart="134.40">
        <route edges="gneE10 gneE13"/>
    </vehicle>
    <vehicle id="341" depart="136.40">
        <route edges="-gneE3 gneE1 gneE4 gneE9 gneE10 gneE13"/>
    </vehicle>
    <vehicle id="349" depart="139.60">
        <route edges="-gneE4 -gneE1 gneE2 gneE7"/>
    </vehicle>
    <vehicle id="354" depart="141.60">
        <route edges="-gneE9 -gneE4"/>
    </vehicle>
    <vehicle id="356" depart="142.40">
        <route edges="gneE2"/>
    </vehicle>
    <vehicle id="362" depart="144.80">
        <route edges="gneE9 gneE11 gneE14"/>
    </vehicle>
    <vehicle id="364" depart="145.60">
        <route edges="-gneE6 -gneE3 gneE1"/>
    </vehicle>
    <vehicle id="366" depart="146.40">
        <route edges="-gneE6 -gneE3 gneE1 gneE4 gneE9 gneE10"/>
    </vehicle>
    <vehicle id="371" depart="148.40">
        <route edges="-gneE5 -gneE0 gneE1 gneE4 gneE9 gneE10"/>
    </vehicle>
    <vehicle id="375" depart="150.00">
        <route edges="-gneE12 -gneE9 -gneE4 -gneE1 gneE3"/>
    </vehicle>
    <vehicle id="377" depart="150.80">
        <route edges="gneE1"/>
    </vehicle>
    <vehicle id="382" depart="152.80">
        <route edges="-gneE13 -gneE10 gneE11"/>
    </vehicle>
    <vehicle id="386" depart="154.40">
        <route edges="-gneE14 -gneE11 gneE12 gneE16"/>
    </vehicle>
    <vehicle id="393" depart="157.20">
        <route edges="-gneE14 -gneE11 -gneE9 -gneE4 -gneE1 gneE3 gneE6"/>
    </vehicle>
    <vehicle id="405" depart="162.00">
        <route edges="-gneE7 -gneE2 gneE3"/>
    </vehicle>
    <vehicle id="407" depart="162.80">
        <route edges="-gneE2 gneE3 gneE6"/>
    </vehicle>
    <vehicle id="411" depart="164.40">
        <route edges="-gneE4 -gneE1 gneE2 gneE7"/>
    </vehicle>
    <vehicle id="422" depart="168.80">
        <route edges="-gneE1 gneE3"/>
    </vehicle>
    <vehicle id="433" depart="173.20">
        <route edges="-gneE2 gneE3 gneE6"/>
    </vehicle>
    <vehicle id="434" depart="173.60">
        <route edges="-gneE0 gneE1 gneE4 gneE9 gneE10"/>
    </vehicle>
    <vehicle id="438" depart="175.20">
        <route edges="-gneE5 -gneE0 gneE2 gneE7"/>
    </vehicle>
    <vehicle id="439" depart="175.60">
        <route edges="-gneE12 -gneE9 -gneE4 -gneE1 gneE2 gneE7"/>
    </vehicle>
    <vehicle id="449" depart="179.60">
        <route edges="-gneE4 -gneE1 gneE2"/>
    </vehicle>
    <vehicle id="450" depart="180.00">
        <route edges="-gneE9 -gneE4 -gneE1 gneE3"/>
    </vehicle>
    <vehicle id="453" depart="181.20">
        <route edges="-gneE12 -gneE9 -gneE4 -gneE1 gneE3"/>
    </vehicle>
    <vehicle id="456" depart="182.40">
        <route edges="-gneE5 -gneE0 gneE1 gneE4"/>
    </vehicle>
    <vehicle id="457" depart="182.80">
        <route edges="-gneE5 -gneE0 gneE1 gneE4 gneE9 gneE10 gneE13"/>
    </vehicle>
    <vehicle id="458" depart="183.20">
        <route edges="-gneE6 -gneE3"/>
    </vehicle>
    <vehicle id="459" depart="183.60">
        <route edges="-gneE12 -gneE9"/>
    </vehicle>
    <vehicle id="464" depart="185.60">
        <route edges="-gneE11 -gneE9"/>
    </vehicle>
    <vehicle id="469" depart="187.60">
        <route edges="-gneE11 -gneE9 -gneE4"/>
    </vehicle>
    <vehicle id="474" depart="189.60">
        <route edges="-gneE11 -gneE9 -gneE4 -gneE1 gneE2"/>
    </vehicle>
    <vehicle id="476" depart="190.40">
        <route edges="-gneE7 -gneE2 gneE0 gneE5"/>
    </vehicle>
    <vehicle id="483" depart="193.20">
        <route edges="-gneE12 -gneE9 -gneE4 -gneE1 gneE2"/>
    </vehicle>
    <vehicle id="490" depart="196.00">
        <route edges="-gneE3 gneE1"/>
    </vehicle>
    <vehicle id="498" depart="199.20">
        <route edges="-gneE1 gneE2 gneE7"/>
    </vehicle>
    <vehicle id="499" depart="199.60">
        <route edges="-gneE14 -gneE11"/>
    </vehicle>
    <vehicle id="500" depart="200.00">
        <route edges="-gneE4 -gneE1 gneE3 gneE6"/>
    </vehicle>
    <vehicle id="504" depart="201.60">
        <route edges="-gneE5 -gneE0 gneE1 gneE4 gneE9 gneE11"/>
    </vehicle>
    <vehicle id="509" depart="203.60">
        <route edges="gneE9 gneE11"/>
    </vehicle>
    <vehicle id="511" depart="204.40">
        <route edges="-gneE9"/>
    </vehicle>
    <vehicle id="514" depart="205.60">
        <route edges="-gneE13 -gneE10"/>
    </vehicle>
    <vehicle id="515" depart="206.00">
        <route edges="-gneE1 gneE2"/>
    </vehicle>
    <vehicle id="518" depart="207.20">
        <route edges="-gneE0 gneE1"/>
    </vehicle>
    <vehicle id="521" depart="208.40">
        <route edges="gneE9 gneE10 gneE13"/>
    </vehicle>
    <vehicle id="526" depart="210.40">
        <route edges="-gneE12 -gneE9 -gneE4"/>
    </vehicle>
    <vehicle id="535" depart="214.00">
        <route edges="-gneE14 -gneE11 -gneE9 -gneE4 -gneE1 gneE2 gneE7"/>
    </vehicle>
    <vehicle id="536" depart="214.40">
        <route edges="-gneE1 gneE3 gneE6"/>
    </vehicle>
    <vehicle id="541" depart="216.40">
        <route edges="gneE1"/>
    </vehicle>
    <vehicle id="543" depart="217.20">
        <route edges="gneE0"/>
    </vehicle>
    <vehicle id="546" depart="218.40">
        <route edges="-gneE5 -gneE0 gneE2 gneE7"/>
    </vehicle>
    <vehicle id="548" depart="219.20">
        <route edges="-gneE12 -gneE9 -gneE4 -gneE1 gneE3 gneE6"/>
    </vehicle>
    <vehicle id="550" depart="220.00">
        <route edges="gneE4 gneE9 gneE11 gneE14"/>
    </vehicle>
    <vehicle id="552" depart="220.80">
        <route edges="-gneE6 -gneE3 gneE0 gneE5"/>
    </vehicle>
    <vehicle id="555" depart="222.00">
        <route edges="-gneE11 gneE12"/>
    </vehicle>
    <vehicle id="556" depart="222.40">
        <route edges="-gneE1 gneE2 gneE7"/>
    </vehicle>
    <vehicle id="557" depart="222.80">
        <route edges="-gneE0 gneE1 gneE4 gneE9 gneE11"/>
    </vehicle>
    <vehicle id="558" depart="223.20">
        <route edges="-gneE5 -gneE0"/>
    </vehicle>
    <vehicle id="560" depart="224.00">
        <route edges="gneE9 gneE11"/>
    </vehicle>
    <vehicle id="563" depart="225.20">
        <route edges="gneE1 gneE4 gneE9"/>
    </vehicle>
    <vehicle id="566" depart="226.40">
        <route edges="-gneE16 -gneE12 -gneE9 -gneE4 -gneE1 gneE2"/>
    </vehicle>
    <vehicle id="568" depart="227.20">
        <route edges="-gneE13 -gneE10 gneE12"/>
    </vehicle>
    <vehicle id="569" depart="227.60">
        <route edges="-gneE10 gneE11 gneE14"/>
    </vehicle>
    <vehicle id="570" depart="228.00">
        <route edges="-gneE14 -gneE11 -gneE9 -gneE4 -gneE1"/>
    </vehicle>
    <vehicle id="571" depart="228.40">
        <route edges="-gneE12 -gneE9 -gneE4 -gneE1 gneE3"/>
    </vehicle>
    <vehicle id="580" depart="232.00">
        <route edges="-gneE5 -gneE0 gneE1 gneE4"/>
    </vehicle>
    <vehicle id="585" depart="234.00">
        <route edges="-gneE5 -gneE0 gneE1 gneE4 gneE9"/>
    </vehicle>
    <vehicle id="587" depart="234.80">
        <route edges="gneE9 gneE10"/>
    </vehicle>
    <vehicle id="598" depart="239.20">
        <route edges="-gneE3 gneE1 gneE4 gneE9 gneE10 gneE13"/>
    </vehicle>
    <vehicle id="599" depart="239.60">
        <route edges="gneE4 gneE9 gneE10 gneE13"/>
    </vehicle>
    <vehicle id="601" depart="240.40">
        <route edges="-gneE5 -gneE0 gneE1 gneE4 gneE9 gneE10 gneE13"/>
    </vehicle>
    <vehicle id="604" depart="241.60">
        <route edges="gneE0"/>
    </vehicle>
    <vehicle id="607" depart="242.80">
        <route edges="-gneE12"/>
    </vehicle>
    <vehicle id="611" depart="244.40">
        <route edges="gneE2"/>
    </vehicle>
    <vehicle id="614" depart="245.60">
        <route edges="-gneE0 gneE1 gneE4 gneE9 gneE11 gneE14"/>
    </vehicle>
    <vehicle id="618" depart="247.20">
        <route edges="gneE9 gneE10"/>
    </vehicle>
    <vehicle id="619" depart="247.60">
        <route edges="-gneE16 -gneE12 -gneE9"/>
    </vehicle>
    <vehicle id="620" depart="248.00">
        <route edges="-gneE14 -gneE11 -gneE9"/>
    </vehicle>
    <vehicle id="621" depart="248.40">
        <route edges="-gneE12 -gneE9 -gneE4 -gneE1 gneE3"/>
    </vehicle>
    <vehicle id="625" depart="250.00">
        <route edges="-gneE11 -gneE9 -gneE4 -gneE1 gneE3"/>
    </vehicle>
    <vehicle id="628" depart="251.20">
        <route edges="-gneE6 -gneE3 gneE1 gneE4 gneE9"/>
    </vehicle>
    <vehicle id="634" depart="253.60">
        <route edges="-gneE6 -gneE3 gneE1 gneE4 gneE9"/>
    </vehicle>
    <vehicle id="635" depart="254.00">
        <route edges="gneE1"/>
    </vehicle>
    <vehicle id="637" depart="254.80">
        <route edges="-gneE6 -gneE3 gneE1 gneE4"/>
    </vehicle>
    <vehicle id="641" depart="256.40">
        <route edges="-gneE1 gneE2 gneE7"/>
    </vehicle>
    <vehicle id="643" depart="257.20">
        <route edges="-gneE7 -gneE2 gneE0 gneE5"/>
    </vehicle>
    <vehicle id="644" depart="257.60">
        <route edges="-gneE16 -gneE12 -gneE9 -gneE4 -gneE1 gneE2"/>
    </vehicle>
    <vehicle id="647" depart="258.80">
        <route edges="-gneE3 gneE0"/>
    </vehicle>
    <vehicle id="648" depart="259.20">
        <route edges="-gneE7 -gneE2 gneE0"/>
    </vehicle>
    <vehicle id="650" depart="260.00">
        <route edges="-gneE3 gneE1 gneE4 gneE9 gneE10"/>
    </vehicle>
    <vehicle id="656" depart="262.40">
        <route edges="-gneE4 -gneE1 gneE3"/>
    </vehicle>
    <vehicle id="666" depart="266.40">
        <route edges="gneE11"/>
    </vehicle>
    <vehicle id="670" depart="268.00">
        <route edges="-gneE14 -gneE11 -gneE9 -gneE4 -gneE1 gneE3 gneE6"/>
    </vehicle>
    <vehicle id="671" depart="268.40">
        <route edges="-gneE13 -gneE10 gneE11"/>
    </vehicle>
    <vehicle id="673" depart="269.20">
        <route edges="-gneE13 -gneE10 gneE12"/>
    </vehicle>
    <vehicle id="687" depart="274.80">
        <route edges="-gneE10 gneE11 gneE14"/>
    </vehicle>
    <vehicle id="690" depart="276.00">
        <route edges="-gneE3 gneE1"/>
    </vehicle>
    <vehicle id="691" depart="276.40">
        <route edges="-gneE3 gneE1 gneE4 gneE9 gneE11"/>
    </vehicle>
    <vehicle id="693" depart="277.20">
        <route edges="-gneE16 -gneE12 gneE10"/>
    </vehicle>
    <vehicle id="697" depart="278.80">
        <route edges="-gneE2 gneE0 gneE5"/>
    </vehicle>
    <vehicle id="700" depart="280.00">
        <route edges="-gneE3 gneE0 gneE5"/>
    </vehicle>
    <vehicle id="709" depart="283.60">
        <route edges="-gneE2 gneE0 gneE5"/>
    </vehicle>
    <vehicle id="714" depart="285.60">
        <route edges="-gneE9 -gneE4"/>
    </vehicle>
    <vehicle id="715" depart="286.00">
        <route edges="-gneE10 gneE12"/>
    </vehicle>
    <vehicle id="721" depart="288.40">
        <route edges="-gneE4"/>
    </vehicle>
    <vehicle id="722" depart="288.80">
        <route edges="gneE1"/>
    </vehicle>
    <vehicle id="723" depart="289.20">
        <route edges="gneE4"/>
    </vehicle>
    <vehicle id="727" depart="290.80">
        <route edges="-gneE4 -gneE1 gneE3 gneE6"/>
    </vehicle>
    <vehicle id="729" depart="291.60">
        <route edges="-gneE1"/>
    </vehicle>
    <vehicle id="730" depart="292.00">
        <route edges="gneE9 gneE10"/>
    </vehicle>
    <vehicle id="732" depart="292.80">
        <route edges="-gneE13 -gneE10"/>
    </vehicle>
    <vehicle id="734" depart="293.60">
        <route edges="-gneE16 -gneE12 gneE10"/>
    </vehicle>
    <vehicle id="738" depart="295.20">
        <route edges="gneE9 gneE11"/>
    </vehicle>
    <vehicle id="739" depart="295.60">
        <route edges="-gneE5 -gneE0 gneE1 gneE4 gneE9 gneE10 gneE13"/>
    </vehicle>
    <vehicle id="741" depart="296.40">
        <route edges="-gneE14 -gneE11 -gneE9 -gneE4 -gneE1 gneE2"/>
    </vehicle>
    <vehicle id="744" depart="297.60">
        <route edges="-gneE0 gneE1 gneE4 gneE9 gneE11 gneE14"/>
    </vehicle>
    <vehicle id="747" depart="298.80">
        <route edges="-gneE16 -gneE12 gneE10"/>
    </vehicle>
    <vehicle id="751" depart="300.40">
        <route edges="-gneE14 -gneE11 -gneE9 -gneE4 -gneE1 gneE2 gneE7"/>
    </vehicle>
    <vehicle id="754" depart="301.60">
        <route edges="-gneE16 -gneE12 -gneE9 -gneE4"/>
    </vehicle>
    <vehicle id="756" depart="302.40">
        <route edges="gneE2 gneE7"/>
    </vehicle>
    <vehicle id="758" depart="303.20">
        <route edges="-gneE7 -gneE2"/>
    </vehicle>
    <vehicle id="760" depart="304.00">
        <route edges="-gneE10 gneE11 gneE14"/>
    </vehicle>
    <vehicle id="766" depart="306.40">
        <route edges="-gneE3 gneE0 gneE5"/>
    </vehicle>
    <vehicle id="767" depart="306.80">
        <route edges="gneE1 gneE4 gneE9 gneE11"/>
    </vehicle>
    <vehicle id="770" depart="308.00">
        <route edges="-gneE12 -gneE9 -gneE4 -gneE1"/>
    </vehicle>
    <vehicle id="771" depart="308.40">
        <route edges="gneE9 gneE10"/>
    </vehicle>
    <vehicle id="777" depart="310.80">
        <route edges="gneE1 gneE4 gneE9 gneE11 gneE14"/>
    </vehicle>
    <vehicle id="781" depart="312.40">
        <route edges="-gneE12 -gneE9 -gneE4 -gneE1 gneE3 gneE6"/>
    </vehicle>
    <vehicle id="782" depart="312.80">
        <route edges="-gneE14 -gneE11"/>
    </vehicle>
    <vehicle id="786" depart="314.40">
        <route edges="gneE2 gneE7"/>
    </vehicle>
    <vehicle id="791" depart="316.40">
        <route edges="-gneE10 gneE12 gneE16"/>
    </vehicle>
    <vehicle id="793" depart="317.20">
        <route edges="gneE2 gneE7"/>
    </vehicle>
    <vehicle id="795" depart="318.00">
        <route edges="-gneE4 -gneE1 gneE2"/>
    </vehicle>
    <vehicle id="798" depart="319.20">
        <route edges="-gneE16 -gneE12 -gneE9"/>
    </vehicle>
    <vehicle id="806" depart="322.40">
        <route edges="-gneE14 -gneE11 gneE12"/>
    </vehicle>
    <vehicle id="808" depart="323.20">
        <route edges="-gneE9 -gneE4 -gneE1"/>
    </vehicle>
    <vehicle id="817" depart="326.80">
        <route edges="gneE0"/>
    </vehicle>
    <vehicle id="819" depart="327.60">
        <route edges="-gneE16 -gneE12 -gneE9"/>
    </vehicle>
    <vehicle id="820" depart="328.00">
        <route edges="-gneE3 gneE1 gneE4"/>
    </vehicle>
    <vehicle id="823" depart="329.20">
        <route edges="gneE9 gneE11 gneE14"/>
    </vehicle>
    <vehicle id="830" depart="332.00">
        <route edges="gneE11 gneE14"/>
    </vehicle>
    <vehicle id="840" depart="336.00">
        <route edges="-gneE7 -gneE2 gneE0 gneE5"/>
    </vehicle>
    <vehicle id="841" depart="336.40">
        <route edges="-gneE2 gneE3 gneE6"/>
    </vehicle>
    <vehicle id="842" depart="336.80">
        <route edges="-gneE11 -gneE9 -gneE4 -gneE1 gneE3 gneE6"/>
    </vehicle>
    <vehicle id="846" depart="338.40">
        <route edges="-gneE4 -gneE1 gneE3"/>
    </vehicle>
    <vehicle id="855" depart="342.00">
        <route edges="-gneE12 -gneE9"/>
    </vehicle>
    <vehicle id="856" depart="342.40">
        <route edges="-gneE12 -gneE9 -gneE4 -gneE1 gneE2 gneE7"/>
    </vehicle>
    <vehicle id="857" depart="342.80">
        <route edges="-gneE16 -gneE12"/>
    </vehicle>
    <vehicle id="859" depart="343.60">
        <route edges="-gneE3 gneE0 gneE5"/>
    </vehicle>
    <vehicle id="870" depart="348.00">
        <route edges="-gneE5 -gneE0"/>
    </vehicle>
    <vehicle id="872" depart="348.80">
        <route edges="-gneE14 -gneE11 gneE12"/>
    </vehicle>
    <vehicle id="873" depart="349.20">
        <route edges="-gneE13 -gneE10 gneE12 gneE16"/>
    </vehicle>
    <vehicle id="875" depart="350.00">
        <route edges="-gneE14 -gneE11 -gneE9"/>
    </vehicle>
    <vehicle id="880" depart="352.00">
        <route edges="-gneE11 gneE12"/>
    </vehicle>
    <vehicle id="882" depart="352.80">
        <route edges="gneE11"/>
    </vehicle>
    <vehicle id="893" depart="357.20">
        <route edges="-gneE4"/>
    </vehicle>
    <vehicle id="897" depart="358.80">
        <route edges="gneE2 gneE7"/>
    </vehicle>
    <vehicle id="905" depart="362.00">
        <route edges="gneE4 gneE9"/>
    </vehicle>
    <vehicle id="907" depart="362.80">
        <route edges="-gneE11 -gneE9 -gneE4 -gneE1"/>
    </vehicle>
    <vehicle id="909" depart="363.60">
        <route edges="-gneE3 gneE1 gneE4"/>
    </vehicle>
    <vehicle id="911" depart="364.40">
        <route edges="-gneE12 -gneE9 -gneE4 -gneE1"/>
    </vehicle>
    <vehicle id="920" depart="368.00">
        <route edges="gneE2 gneE7"/>
    </vehicle>
    <vehicle id="923" depart="369.20">
        <route edges="-gneE13 -gneE10"/>
    </vehicle>
    <vehicle id="924" depart="369.60">
        <route edges="gneE9 gneE10 gneE13"/>
    </vehicle>
    <vehicle id="925" depart="370.00">
        <route edges="-gneE16 -gneE12 gneE10"/>
    </vehicle>
    <vehicle id="926" depart="370.40">
        <route edges="-gneE7 -gneE2 gneE3 gneE6"/>
    </vehicle>
    <vehicle id="927" depart="370.80">
        <route edges="-gneE16 -gneE12 -gneE9 -gneE4"/>
    </vehicle>
    <vehicle id="928" depart="371.20">
        <route edges="-gneE12"/>
    </vehicle>
    <vehicle id="936" depart="374.40">
        <route edges="gneE0"/>
    </vehicle>
    <vehicle id="942" depart="376.80">
        <route edges="-gneE14 -gneE11 gneE12"/>
    </vehicle>
    <vehicle id="952" depart="380.80">
        <route edges="gneE1 gneE4 gneE9"/>
    </vehicle>
    <vehicle id="958" depart="383.20">
        <route edges="gneE9 gneE10 gneE13"/>
    </vehicle>
    <vehicle id="961" depart="384.40">
        <route edges="-gneE11 -gneE9 -gneE4 -gneE1 gneE2"/>
    </vehicle>
    <vehicle id="964" depart="385.60">
        <route edges="-gneE11 -gneE9 -gneE4 -gneE1 gneE2 gneE7"/>
    </vehicle>
    <vehicle id="967" depart="386.80">
        <route edges="-gneE9 -gneE4 -gneE1 gneE2 gneE7"/>
    </vehicle>
    <vehicle id="972" depart="388.80">
        <route edges="gneE1 gneE4 gneE9 gneE11 gneE14"/>
    </vehicle>
    <vehicle id="976" depart="390.40">
        <route edges="gneE3 gneE6"/>
    </vehicle>
    <vehicle id="979" depart="391.60">
        <route edges="-gneE3 gneE1 gneE4 gneE9 gneE11 gneE14"/>
    </vehicle>
    <vehicle id="997" depart="398.80">
        <route edges="-gneE5 -gneE0 gneE2"/>
    </vehicle>
    <vehicle id="1007" depart="402.80">
        <route edges="-gneE6 -gneE3 gneE1 gneE4 gneE9 gneE10 gneE13"/>
    </vehicle>
    <vehicle id="1018" depart="407.20">
        <route edges="-gneE10 gneE12 gneE16"/>
    </vehicle>
    <vehicle id="1021" depart="408.40">
        <route edges="-gneE12 -gneE9 -gneE4 -gneE1 gneE2 gneE7"/>
    </vehicle>
    <vehicle id="1027" depart="410.80">
        <route edges="gneE11 gneE14"/>
    </vehicle>
    <vehicle id="1033" depart="413.20">
        <route edges="-gneE12 -gneE9 -gneE4 -gneE1 gneE2"/>
    </vehicle>
    <vehicle id="1040" depart="416.00">
        <route edges="-gneE4 -gneE1"/>
    </vehicle>
    <vehicle id="1041" depart="416.40">
        <route edges="-gneE6 -gneE3 gneE1 gneE4 gneE9"/>
    </vehicle>
    <vehicle id="1043" depart="417.20">
        <route edges="-gneE9 -gneE4 -gneE1 gneE2"/>
    </vehicle>
    <vehicle id="1045" depart="418.00">
        <route edges="-gneE5 -gneE0 gneE1"/>
    </vehicle>
    <vehicle id="1046" depart="418.40">
        <route edges="-gneE3 gneE1 gneE4"/>
    </vehicle>
    <vehicle id="1050" depart="420.00">
        <route edges="-gneE16 -gneE12 -gneE9 -gneE4 -gneE1 gneE3"/>
    </vehicle>
    <vehicle id="1053" depart="421.20">
        <route edges="-gneE0 gneE1 gneE4 gneE9 gneE11 gneE14"/>
    </vehicle>