<?xml version="1.0" encoding="UTF-8"?>

<!-- generated on 2021-09-29 19:30:33 by Eclipse SUMO duarouter Version 1.9.2
<configuration xmlns:xsi="http://www.w3.org/2001/XMLSchema-instance" xsi:noNamespaceSchemaLocation="http://sumo.dlr.de/xsd/duarouterConfiguration.xsd">

    <input>
        <net-file value="/home/sonic/Desktop/nets/case03/intersection.net.xml"/>
        <route-files value="trips.trips.xml"/>
    </input>

    <output>
        <output-file value="intersection_random2.rou.xml"/>
        <alternatives-output value="intersection_random2.rou.alt.xml"/>
    </output>

    <time>
        <begin value="0"/>
        <end value="3600.0"/>
    </time>

    <report>
        <no-warnings value="true"/>
        <ignore-errors value="true"/>
        <no-step-log value="true"/>
    </report>

</configuration>
-->

<routes xmlns:xsi="http://www.w3.org/2001/XMLSchema-instance" xsi:noNamespaceSchemaLocation="http://sumo.dlr.de/xsd/routes_file.xsd">
    <vehicle id="0" depart="0.00">
        <route edges="gneE2"/>
    </vehicle>
    <vehicle id="1" depart="0.40">
        <route edges="-gneE10 gneE12 gneE16"/>
    </vehicle>
    <vehicle id="7" depart="2.80">
        <route edges="-gneE1 gneE3"/>
    </vehicle>
    <vehicle id="8" depart="3.20">
        <route edges="-gneE6 -gneE3 gneE1 gneE4 gneE9 gneE11 gneE14"/>
    </vehicle>
    <vehicle id="12" depart="4.80">
        <route edges="-gneE5 -gneE0 gneE2"/>
    </vehicle>
    <vehicle id="16" depart="6.40">
        <route edges="-gneE3 gneE1 gneE4 gneE9 gneE11"/>
    </vehicle>
    <vehicle id="19" depart="7.60">
        <route edges="-gneE0 gneE1 gneE4 gneE9 gneE10 gneE13"/>
    </vehicle>
    <vehicle id="25" depart="10.00">
        <route edges="-gneE4 -gneE1"/>
    </vehicle>
    <vehicle id="32" depart="12.80">
        <route edges="-gneE6 -gneE3 gneE1 gneE4 gneE9 gneE11 gneE14"/>
    </vehicle>
    <vehicle id="36" depart="14.40">
        <route edges="gneE1 gneE4 gneE9 gneE10 gneE13"/>
    </vehicle>
    <vehicle id="38" depart="15.20">
        <route edges="-gneE2 gneE3 gneE6"/>
    </vehicle>
    <vehicle id="40" depart="16.00">
        <route edges="-gneE6 -gneE3 gneE0 gneE5"/>
    </vehicle>
    <vehicle id="41" depart="16.40">
        <route edges="gneE10"/>
    </vehicle>
    <vehicle id="43" depart="17.20">
        <route edges="gneE4 gneE9 gneE11 gneE14"/>
    </vehicle>
    <vehicle id="44" depart="17.60">
        <route edges="-gneE3 gneE1"/>
    </vehicle>
    <vehicle id="45" depart="18.00">
        <route edges="-gneE10 gneE12"/>
    </vehicle>
    <vehicle id="54" depart="21.60">
        <route edges="-gneE12 gneE10"/>
    </vehicle>
    <vehicle id="55" depart="22.00">
        <route edges="-gneE4 -gneE1"/>
    </vehicle>
    <vehicle id="56" depart="22.40">
        <route edges="-gneE10"/>
    </vehicle>
    <vehicle id="66" depart="26.40">
        <route edges="-gneE9"/>
    </vehicle>
    <vehicle id="67" depart="26.80">
        <route edges="-gneE6 -gneE3 gneE1 gneE4 gneE9 gneE10"/>
    </vehicle>
    <vehicle id="68" depart="27.20">
        <route edges="-gneE0 gneE2"/>
    </vehicle>
    <vehicle id="69" depart="27.60">
        <route edges="-gneE13 -gneE10 gneE11 gneE14"/>
    </vehicle>
    <vehicle id="77" depart="30.80">
        <route edges="-gneE16 -gneE12 -gneE9 -gneE4 -gneE1 gneE3"/>
    </vehicle>
    <vehicle id="89" depart="35.60">
        <route edges="-gneE14 -gneE11 gneE12"/>
    </vehicle>
    <vehicle id="90" depart="36.00">
        <route edges="-gneE6 -gneE3 gneE1 gneE4 gneE9 gneE11 gneE14"/>
    </vehicle>
    <vehicle id="95" depart="38.00">
        <route edges="-gneE11 -gneE9 -gneE4 -gneE1 gneE3 gneE6"/>
    </vehicle>
    <vehicle id="103" depart="41.20">
        <route edges="-gneE5 -gneE0 gneE2 gneE7"/>
    </vehicle>
    <vehicle id="109" depart="43.60">
        <route edges="gneE12 gneE16"/>
    </vehicle>
    <vehicle id="118" depart="47.20">
        <route edges="-gneE6 -gneE3 gneE1 gneE4 gneE9 gneE10 gneE13"/>
    </vehicle>
    <vehicle id="119" depart="47.60">
        <route edges="gneE9 gneE10 gneE13"/>
    </vehicle>
    <vehicle id="122" depart="48.80">
        <route edges="-gneE14 -gneE11 -gneE9 -gneE4 -gneE1"/>
    </vehicle>
    <vehicle id="124" depart="49.60">
        <route edges="-gneE16 -gneE12"/>
    </vehicle>
    <vehicle id="126" depart="50.40">
        <route edges="-gneE3"/>
    </vehicle>
    <vehicle id="130" depart="52.00">
        <route edges="-gneE13 -gneE10"/>
    </vehicle>
    <vehicle id="138" depart="55.20">
        <route edges="-gneE12 -gneE9 -gneE4 -gneE1 gneE3"/>
    </vehicle>
    <vehicle id="142" depart="56.80">
        <route edges="-gneE14 -gneE11 -gneE9 -gneE4 -gneE1 gneE2 gneE7"/>
    </vehicle>
    <vehicle id="156" depart="62.40">
        <route edges="-gneE16 -gneE12"/>
    </vehicle>
    <vehicle id="162" depart="64.80">
        <route edges="gneE9 gneE11"/>
    </vehicle>
    <vehicle id="168" depart="67.20">
        <route edges="-gneE11 gneE12 gneE16"/>
    </vehicle>
    <vehicle id="172" depart="68.80">
        <route edges="-gneE0 gneE1 gneE4 gneE9 gneE11"/>
    </vehicle>
    <vehicle id="178" depart="71.20">
        <route edges="-gneE11 -gneE9 -gneE4"/>
    </vehicle>
    <vehicle id="180" depart="72.00">
        <route edges="gneE9 gneE10"/>
    </vehicle>
    <vehicle id="181" depart="72.40">
        <route edges="-gneE4 -gneE1 gneE3"/>
    </vehicle>
    <vehicle id="184" depart="73.60">
        <route edges="-gneE14 -gneE11 gneE12 gneE16"/>
    </vehicle>
    <vehicle id="188" depart="75.20">
        <route edges="-gneE14 -gneE11"/>
    </vehicle>
    <vehicle id="190" depart="76.00">
        <route edges="-gneE12 gneE10 gneE13"/>
    </vehicle>
    <vehicle id="208" depart="83.20">
        <route edges="-gneE3 gneE1 gneE4 gneE9 gneE10"/>
    </vehicle>
    <vehicle id="209" depart="83.60">
        <route edges="-gneE3 gneE1 gneE4 gneE9 gneE11"/>
    </vehicle>
    <vehicle id="216" depart="86.40">
        <route edges="gneE0"/>
    </vehicle>
    <vehicle id="221" depart="88.40">
        <route edges="gneE11"/>
    </vehicle>
    <vehicle id="223" depart="89.20">
        <route edges="-gneE16 -gneE12 -gneE9 -gneE4 -gneE1 gneE3 gneE6"/>
    </vehicle>
    <vehicle id="226" depart="90.40">
        <route edges="-gneE10 gneE12"/>
    </vehicle>
    <vehicle id="227" depart="90.80">
        <route edges="-gneE13 -gneE10 gneE12 gneE16"/>
    </vehicle>
    <vehicle id="228" depart="91.20">
        <route edges="gneE1 gneE4 gneE9 gneE11 gneE14"/>
    </vehicle>
    <vehicle id="230" depart="92.00">
        <route edges="-gneE5 -gneE0 gneE2 gneE7"/>
    </vehicle>
    <vehicle id="239" depart="95.60">
        <route edges="-gneE12 gneE10 gneE13"/>
    </vehicle>
    <vehicle id="251" depart="100.40">
        <route edges="-gneE5 -gneE0"/>
    </vehicle>
    <vehicle id="253" depart="101.20">
        <route edges="-gneE4"/>
    </vehicle>
    <vehicle id="259" depart="103.60">
        <route edges="-gneE11 -gneE9 -gneE4"/>
    </vehicle>
    <vehicle id="260" depart="104.00">
        <route edges="-gneE5 -gneE0 gneE1 gneE4 gneE9"/>
    </vehicle>
    <vehicle id="261" depart="104.40">
        <route edges="-gneE6 -gneE3 gneE1 gneE4"/>
    </vehicle>
    <vehicle id="264" depart="105.60">
        <route edges="-gneE16 -gneE12"/>
    </vehicle>
    <vehicle id="266" depart="106.40">
        <route edges="-gneE14 -gneE11 -gneE9 -gneE4 -gneE1 gneE3"/>
    </vehicle>
    <vehicle id="271" depart="108.40">
        <route edges="-gneE12 -gneE9 -gneE4 -gneE1"/>
    </vehicle>
    <vehicle id="276" depart="110.40">
        <route edges="-gneE4 -gneE1 gneE3 gneE6"/>
    </vehicle>
    <vehicle id="282" depart="112.80">
        <route edges="-gneE11 -gneE9 -gneE4 -gneE1 gneE3"/>
    </vehicle>
    <vehicle id="288" depart="115.20">
        <route edges="-gneE11 -gneE9 -gneE4 -gneE1"/>
    </vehicle>
    <vehicle id="291" depart="116.40">
        <route edges="gneE4 gneE9 gneE10 gneE13"/>
    </vehicle>
    <vehicle id="297" depart="118.80">
        <route edges="-gneE0 gneE1 gneE4 gneE9 gneE11 gneE14"/>
    </vehicle>
    <vehicle id="298" depart="119.20">
        <route edges="-gneE5 -gneE0 gneE1 gneE4 gneE9 gneE11 gneE14"/>
    </vehicle>
    <vehicle id="302" depart="120.80">
        <route edges="gneE1 gneE4"/>
    </vehicle>
    <vehicle id="304" depart="121.60">
        <route edges="-gneE6 -gneE3 gneE0"/>
    </vehicle>
    <vehicle id="305" depart="122.00">
        <route edges="-gneE6 -gneE3 gneE0"/>
    </vehicle>
    <vehicle id="313" depart="125.20">
        <route edges="-gneE9 -gneE4 -gneE1 gneE2"/>
    </vehicle>
    <vehicle id="315" depart="126.00">
        <route edges="gneE9 gneE10"/>
    </vehicle>
    <vehicle id="324" depart="129.60">
        <route edges="gneE4 gneE9 gneE11"/>
    </vehicle>
    <vehicle id="328" depart="131.20">
        <route edges="-gneE14 -gneE11 gneE12"/>
    </vehicle>
    <vehicle id="329" depart="131.60">
        <route edges="-gneE16 -gneE12 -gneE9 -gneE4"/>
    </vehicle>
    <vehicle id="334" depart="133.60">
        <route edges="-gneE12 -gneE9"/>
    </vehicle>
    <vehicle id="343" depart="137.20">
        <route edges="-gneE9"/>
    </vehicle>
    <vehicle id="352" depart="140.80">
        <route edges="-gneE3 gneE1 gneE4 gneE9 gneE11 gneE14"/>
    </vehicle>
    <vehicle id="357" depart="142.80">
        <route edges="-gneE4"/>
    </vehicle>
    <vehicle id="362" depart="144.80">
        <route edges="gneE1"/>
    </vehicle>
    <vehicle id="363" depart="145.20">
        <route edges="-gneE6 -gneE3 gneE1 gneE4 gneE9 gneE10 gneE13"/>
    </vehicle>
    <vehicle id="365" depart="146.00">
        <route edges="-gneE2 gneE3 gneE6"/>
    </vehicle>
    <vehicle id="366" depart="146.40">
        <route edges="gneE2 gneE7"/>
    </vehicle>
    <vehicle id="373" depart="149.20">
        <route edges="gneE0"/>
    </vehicle>
    <vehicle id="375" depart="150.00">
        <route edges="gneE11"/>
    </vehicle>
    <vehicle id="377" depart="150.80">
        <route edges="gneE4 gneE9 gneE11"/>
    </vehicle>
    <vehicle id="380" depart="152.00">
        <route edges="-gneE2 gneE3"/>
    </vehicle>
    <vehicle id="383" depart="153.20">
        <route edges="-gneE14 -gneE11 -gneE9 -gneE4 -gneE1 gneE3"/>
    </vehicle>
    <vehicle id="384" depart="153.60">
        <route edges="gneE9"/>
    </vehicle>
    <vehicle id="389" depart="155.60">
        <route edges="-gneE13 -gneE10 gneE11 gneE14"/>
    </vehicle>
    <vehicle id="394" depart="157.60">
        <route edges="-gneE14 -gneE11 -gneE9 -gneE4 -gneE1 gneE3"/>
    </vehicle>
    <vehicle id="398" depart="159.20">
        <route edges="-gneE7 -gneE2 gneE3"/>
    </vehicle>
    <vehicle id="404" depart="161.60">
        <route edges="-gneE6 -gneE3 gneE1 gneE4 gneE9 gneE11"/>
    </vehicle>
    <vehicle id="407" depart="162.80">
        <route edges="-gneE14 -gneE11 -gneE9 -gneE4 -gneE1 gneE3"/>
    </vehicle>
    <vehicle id="408" depart="163.20">
        <route edges="gneE3 gneE6"/>
    </vehicle>
    <vehicle id="410" depart="164.00">
        <route edges="-gneE4 -gneE1 gneE3"/>
    </vehicle>
    <vehicle id="413" depart="165.20">
        <route edges="gneE11"/>
    </vehicle>
    <vehicle id="418" depart="167.20">
        <route edges="gneE12 gneE16"/>
    </vehicle>
    <vehicle id="420" depart="168.00">
        <route edges="-gneE9 -gneE4 -gneE1 gneE2"/>
    </vehicle>
    <vehicle id="421" depart="168.40">
        <route edges="-gneE4"/>
    </vehicle>
    <vehicle id="422" depart="168.80">
        <route edges="-gneE0 gneE1 gneE4 gneE9 gneE10"/>
    </vehicle>
    <vehicle id="423" depart="169.20">
        <route edges="-gneE3 gneE1 gneE4"/>
    </vehicle>
    <vehicle id="427" depart="170.80">
        <route edges="-gneE5 -gneE0"/>
    </vehicle>
    <vehicle id="434" depart="173.60">
        <route edges="gneE9 gneE11 gneE14"/>
    </vehicle>
    <vehicle id="435" depart="174.00">
        <route edges="gneE9 gneE10"/>
    </vehicle>
    <vehicle id="445" depart="178.00">
        <route edges="-gneE5 -gneE0 gneE1 gneE4 gneE9 gneE10 gneE13"/>
    </vehicle>
    <vehicle id="446" depart="178.40">
        <route edges="-gneE5 -gneE0 gneE2"/>
    </vehicle>
    <vehicle id="449" depart="179.60">
        <route edges="-gneE6 -gneE3 gneE1 gneE4 gneE9 gneE10 gneE13"/>
    </vehicle>
    <vehicle id="461" depart="184.40">
        <route edges="-gneE3 gneE1 gneE4 gneE9 gneE11 gneE14"/>
    </vehicle>
    <vehicle id="464" depart="185.60">
        <route edges="-gneE6 -gneE3 gneE1 gneE4 gneE9 gneE10"/>
    </vehicle>
    <vehicle id="471" depart="188.40">
        <route edges="gneE4"/>
    </vehicle>
    <vehicle id="472" depart="188.80">
        <route edges="gneE0 gneE5"/>
    </vehicle>
    <vehicle id="475" depart="190.00">
        <route edges="gneE4 gneE9 gneE10 gneE13"/>
    </vehicle>
    <vehicle id="476" depart="190.40">
        <route edges="-gneE16 -gneE12"/>
    </vehicle>
    <vehicle id="480" depart="192.00">
        <route edges="-gneE5 -gneE0 gneE1 gneE4 gneE9 gneE11 gneE14"/>
    </vehicle>
    <vehicle id="481" depart="192.40">
        <route edges="-gneE11"/>
    </vehicle>
    <vehicle id="495" depart="198.00">
        <route edges="-gneE16 -gneE12 -gneE9 -gneE4"/>
    </vehicle>
    <vehicle id="496" depart="198.40">
        <route edges="-gneE13 -gneE10 gneE11 gneE14"/>
    </vehicle>
    <vehicle id="497" depart="198.80">
        <route edges="-gneE10"/>
    </vehicle>
    <vehicle id="499" depart="199.60">
        <route edges="-gneE11"/>
    </vehicle>
    <vehicle id="507" depart="202.80">
        <route edges="-gneE10 gneE12 gneE16"/>
    </vehicle>
    <vehicle id="511" depart="204.40">
        <route edges="-gneE11 -gneE9 -gneE4 -gneE1 gneE2 gneE7"/>
    </vehicle>
    <vehicle id="521" depart="208.40">
        <route edges="-gneE3 gneE1 gneE4 gneE9 gneE11 gneE14"/>
    </vehicle>
    <vehicle id="525" depart="210.00">
        <route edges="-gneE6 -gneE3 gneE1 gneE4 gneE9 gneE11 gneE14"/>
    </vehicle>
    <vehicle id="534" depart="213.60">
        <route edges="-gneE0 gneE1 gneE4 gneE9 gneE10"/>
    </vehicle>
    <vehicle id="535" depart="214.00">
        <route edges="-gneE3 gneE1 gneE4 gneE9"/>
    </vehicle>
    <vehicle id="536" depart="214.40">
        <route edges="-gneE6 -gneE3 gneE1 gneE4 gneE9 gneE11 gneE14"/>
    </vehicle>
    <vehicle id="541" depart="216.40">
        <route edges="-gneE5 -gneE0"/>
    </vehicle>
    <vehicle id="542" depart="216.80">
        <route edges="-gneE6 -gneE3 gneE1 gneE4 gneE9 gneE11 gneE14"/>
    </vehicle>
    <vehicle id="543" depart="217.20">
        <route edges="-gneE9"/>
    </vehicle>
    <vehicle id="547" depart="218.80">
        <route edges="-gneE5 -gneE0 gneE2 gneE7"/>
    </vehicle>
    <vehicle id="549" depart="219.60">
        <route edges="-gneE16 -gneE12"/>
    </vehicle>
    <vehicle id="557" depart="222.80">
        <route edges="-gneE12 gneE10"/>
    </vehicle>
    <vehicle id="565" depart="226.00">
        <route edges="-gneE5 -gneE0 gneE1 gneE4 gneE9 gneE10"/>
    </vehicle>
    <vehicle id="568" depart="227.20">
        <route edges="-gneE11 -gneE9"/>
    </vehicle>
    <vehicle id="569" depart="227.60">
        <route edges="gneE3 gneE6"/>
    </vehicle>
    <vehicle id="571" depart="228.40">
        <route edges="-gneE6 -gneE3 gneE1 gneE4 gneE9 gneE10"/>
    </vehicle>
    <vehicle id="572" depart="228.80">
        <route edges="-gneE1 gneE3"/>
    </vehicle>
    <vehicle id="581" depart="232.40">
        <route edges="gneE1 gneE4 gneE9 gneE10 gneE13"/>
    </vehicle>
    <vehicle id="584" depart="233.60">
        <route edges="-gneE14 -gneE11 -gneE9 -gneE4 -gneE1 gneE2"/>
    </vehicle>
    <vehicle id="591" depart="236.40">
        <route edges="-gneE3 gneE1 gneE4 gneE9"/>
    </vehicle>
    <vehicle id="593" depart="237.20">
        <route edges="-gneE10 gneE11 gneE14"/>
    </vehicle>
    <vehicle id="597" depart="238.80">
        <route edges="-gneE0"/>
    </vehicle>
    <vehicle id="599" depart="239.60">
        <route edges="-gneE5 -gneE0 gneE1 gneE4 gneE9 gneE10 gneE13"/>
    </vehicle>
    <vehicle id="600" depart="240.00">
        <route edges="-gneE3 gneE1 gneE4 gneE9 gneE10 gneE13"/>
    </vehicle>
    <vehicle id="601" depart="240.40">
        <route edges="-gneE11 -gneE9 -gneE4 -gneE1 gneE3"/>
    </vehicle>
    <vehicle id="602" depart="240.80">
        <route edges="-gneE4 -gneE1 gneE3"/>
    </vehicle>
    <vehicle id="605" depart="242.00">
        <route edges="-gneE12"/>
    </vehicle>
    <vehicle id="611" depart="244.40">
        <route edges="-gneE11 -gneE9 -gneE4"/>
    </vehicle>
    <vehicle id="614" depart="245.60">
        <route edges="-gneE6 -gneE3 gneE1 gneE4 gneE9 gneE11 gneE14"/>
    </vehicle>
    <vehicle id="615" depart="246.00">
        <route edges="gneE4 gneE9 gneE11 gneE14"/>
    </vehicle>
    <vehicle id="617" depart="246.80">
        <route edges="gneE1 gneE4"/>
    </vehicle>
    <vehicle id="620" depart="248.00">
        <route edges="-gneE6 -gneE3 gneE0 gneE5"/>
    </vehicle>
    <vehicle id="621" depart="248.40">
        <route edges="-gneE0 gneE2 gneE7"/>
    </vehicle>
    <vehicle id="630" depart="252.00">
        <route edges="-gneE11"/>
    </vehicle>
    <vehicle id="634" depart="253.60">
        <route edges="gneE1"/>
    </vehicle>
    <vehicle id="635" depart="254.00">
        <route edges="-gneE5 -gneE0 gneE1"/>
    </vehicle>
    <vehicle id="638" depart="255.20">
        <route edges="-gneE5 -gneE0 gneE1"/>
    </vehicle>
    <vehicle id="641" depart="256.40">
        <route edges="-gneE16 -gneE12 -gneE9 -gneE4"/>
    </vehicle>
    <vehicle id="652" depart="260.80">
        <route edges="gneE9 gneE11 gneE14"/>
    </vehicle>
    <vehicle id="655" depart="262.00">
        <route edges="-gneE9 -gneE4 -gneE1 gneE3"/>
    </vehicle>
    <vehicle id="657" depart="262.80">
        <route edges="-gneE7 -gneE2"/>
    </vehicle>
    <vehicle id="658" depart="263.20">
        <route edges="-gneE12 -gneE9 -gneE4 -gneE1 gneE3 gneE6"/>
    </vehicle>
    <vehicle id="662" depart="264.80">
        <route edges="gneE1 gneE4 gneE9"/>
    </vehicle>
    <vehicle id="663" depart="265.20">
        <route edges="-gneE3 gneE0"/>
    </vehicle>
    <vehicle id="666" depart="266.40">
        <route edges="-gneE0 gneE1 gneE4 gneE9 gneE11 gneE14"/>
    </vehicle>
    <vehicle id="667" depart="266.80">
        <route edges="gneE3 gneE6"/>
    </vehicle>
    <vehicle id="672" depart="268.80">
        <route edges="-gneE7 -gneE2 gneE0"/>
    </vehicle>
    <vehicle id="674" depart="269.60">
        <route edges="-gneE4 -gneE1 gneE3"/>
    </vehicle>
    <vehicle id="679" depart="271.60">
        <route edges="gneE4 gneE9 gneE11"/>
    </vehicle>
    <vehicle id="681" depart="272.40">
        <route edges="-gneE9 -gneE4 -gneE1 gneE3"/>
    </vehicle>
    <vehicle id="682" depart="272.80">
        <route edges="-gneE4 -gneE1 gneE2"/>
    </vehicle>
    <vehicle id="688" depart="275.20">
        <route edges="-gneE4 -gneE1 gneE2"/>
    </vehicle>
    <vehicle id="692" depart="276.80">
        <route edges="-gneE12 -gneE9"/>
    </vehicle>
    <vehicle id="693" depart="277.20">
        <route edges="-gneE9 -gneE4 -gneE1 gneE2 gneE7"/>
    </vehicle>
    <vehicle id="699" depart="279.60">
        <route edges="-gneE9 -gneE4 -gneE1 gneE2"/>
    </vehicle>
    <vehicle id="706" depart="282.40">
        <route edges="-gneE0 gneE1 gneE4"/>
    </vehicle>
    <vehicle id="711" depart="284.40">
        <route edges="-gneE12 gneE10 gneE13"/>
    </vehicle>
    <vehicle id="728" depart="291.20">
        <route edges="-gneE4"/>
    </vehicle>
    <vehicle id="736" depart="294.40">
        <route edges="-gneE16 -gneE12 -gneE9 -gneE4"/>
    </vehicle>
    <vehicle id="738" depart="295.20">
        <route edges="-gneE1 gneE3"/>
    </vehicle>
    <vehicle id="739" depart="295.60">
        <route edges="-gneE6 -gneE3 gneE1 gneE4 gneE9 gneE11 gneE14"/>
    </vehicle>
    <vehicle id="748" depart="299.20">
        <route edges="gneE1 gneE4 gneE9 gneE10 gneE13"/>
    </vehicle>
    <vehicle id="753" depart="301.20">
        <route edges="-gneE4 -gneE1 gneE2 gneE7"/>
    </vehicle>
    <vehicle id="761" depart="304.40">
        <route edges="-gneE5 -gneE0"/>
    </vehicle>
    <vehicle id="762" depart="304.80">
        <route edges="-gneE0 gneE1 gneE4 gneE9"/>
    </vehicle>
    <vehicle id="765" depart="306.00">
        <route edges="-gneE5 -gneE0 gneE1 gneE4 gneE9"/>
    </vehicle>
    <vehicle id="767" depart="306.80">
        <route edges="gneE12"/>
    </vehicle>
    <vehicle id="769" depart="307.60">
        <route edges="-gneE0 gneE2"/>
    </vehicle>
    <vehicle id="771" depart="308.40">
        <route edges="-gneE5 -gneE0 gneE2 gneE7"/>
    </vehicle>
    <vehicle id="772" depart="308.80">
        <route edges="-gneE7 -gneE2 gneE0"/>
    </vehicle>
    <vehicle id="775" depart="310.00">
        <route edges="-gneE6 -gneE3 gneE0 gneE5"/>
    </vehicle>
    <vehicle id="784" depart="313.60">
        <route edges="-gneE6 -gneE3 gneE1 gneE4 gneE9 gneE11"/>
    </vehicle>
    <vehicle id="786" depart="314.40">
        <route edges="-gneE7 -gneE2 gneE3 gneE6"/>
    </vehicle>
    <vehicle id="791" depart="316.40">
        <route edges="gneE1 gneE4 gneE9 gneE11"/>
    </vehicle>
    <vehicle id="795" depart="318.00">
        <route edges="gneE9 gneE11"/>
    </vehicle>
    <vehicle id="797" depart="318.80">
        <route edges="gneE4"/>
    </vehicle>
    <vehicle id="799" depart="319.60">
        <route edges="-gneE3 gneE1 gneE4 gneE9 gneE10"/>
    </vehicle>
    <vehicle id="801" depart="320.40">
        <route edges="-gneE4"/>
    </vehicle>
    <vehicle id="806" depart="322.40">
        <route edges="-gneE6 -gneE3 gneE1 gneE4"/>
    </vehicle>
    <vehicle id="811" depart="324.40">
        <route edges="-gneE13 -gneE10 gneE12"/>
    </vehicle>
    <vehicle id="813" depart="325.20">
        <route edges="-gneE6 -gneE3 gneE1 gneE4 gneE9 gneE10"/>
    </vehicle>
    <vehicle id="815" depart="326.00">
        <route edges="-gneE12 -gneE9 -gneE4 -gneE1 gneE2 gneE7"/>
    </vehicle>
    <vehicle id="817" depart="326.80">
        <route edges="-gneE0 gneE1 gneE4 gneE9 gneE11"/>
    </vehicle>
    <vehicle id="818" depart="327.20">
        <route edges="-gneE12 gneE10"/>
    </vehicle>
    <vehicle id="819" depart="327.60">
        <route edges="-gneE2 gneE3"/>
    </vehicle>
    <vehicle id="820" depart="328.00">
        <route edges="-gneE13 -gneE10 gneE11 gneE14"/>
    </vehicle>
    <vehicle id="821" depart="328.40">
        <route edges="-gneE2 gneE0 gneE5"/>
    </vehicle>
    <vehicle id="822" depart="328.80">
        <route edges="gneE0 gneE5"/>
    </vehicle>
    <vehicle id="823" depart="329.20">
        <route edges="-gneE11 -gneE9 -gneE4"/>
    </vehicle>
    <vehicle id="828" depart="331.20">
        <route edges="-gneE7 -gneE2 gneE3 gneE6"/>
    </vehicle>
    <vehicle id="838" depart="335.20">
        <route edges="-gneE6 -gneE3 gneE0"/>
    </vehicle>
    <vehicle id="840" depart="336.00">
        <route edges="-gneE13 -gneE10 gneE12 gneE16"/>
    </vehicle>
    <vehicle id="846" depart="338.40">
        <route edges="-gneE6 -gneE3 gneE1 gneE4"/>
    </vehicle>
    <vehicle id="857" depart="342.80">
        <route edges="-gneE3 gneE1 gneE4"/>
    </vehicle>
    <vehicle id="858" depart="343.20">
        <route edges="gneE4 gneE9 gneE10 gneE13"/>
    </vehicle>
    <vehicle id="864" depart="345.60">
        <route edges="-gneE10 gneE11"/>
    </vehicle>
    <vehicle id="865" depart="346.00">
        <route edges="-gneE7 -gneE2 gneE0 gneE5"/>
    </vehicle>
    <vehicle id="869" depart="347.60">
        <route edges="-gneE10"/>
    </vehicle>
    <vehicle id="875" depart="350.00">
        <route edges="-gneE12 -gneE9"/>
    </vehicle>
    <vehicle id="877" depart="350.80">
        <route edges="-gneE12"/>
    </vehicle>
    <vehicle id="888" depart="355.20">
        <route edges="-gneE7 -gneE2 gneE3 gneE6"/>
    </vehicle>
    <vehicle id="895" depart="358.00">
        <route edges="-gneE0 gneE1 gneE4 gneE9"/>
    </vehicle>
    <vehicle id="901" depart="360.40">
        <route edges="-gneE16 -gneE12 -gneE9 -gneE4 -gneE1 gneE2"/>
    </vehicle>
    <vehicle id="904" depart="361.60">
        <route edges="gneE0"/>
    </vehicle>
    <vehicle id="909" depart="363.60">
        <route edges="-gneE3"/>
    </vehicle>
    <vehicle id="912" depart="364.80">
        <route edges="gneE2 gneE7"/>
    </vehicle>
    <vehicle id="915" depart="366.00">
        <route edges="-gneE5 -gneE0 gneE1"/>
    </vehicle>
    <vehicle id="916" depart="366.40">
        <route edges="-gneE2 gneE3"/>
    </vehicle>
    <vehicle id="920" depart="368.00">
        <route edges="gneE12 gneE16"/>
    </vehicle>
    <vehicle id="922" depart="368.80">
        <route edges="-gneE6 -gneE3 gneE0"/>
    </vehicle>
    <vehicle id="923" depart="369.20">
        <route edges="-gneE14 -gneE11 gneE12"/>
    </vehicle>
    <vehicle id="928" depart="371.20">
        <route edges="-gneE6 -gneE3"/>
    </vehicle>
    <vehicle id="932" depart="372.80">
        <route edges="-gneE16 -gneE12 gneE10"/>
    </vehicle>
    <vehicle id="938" depart="375.20">
        <route edges="gneE9 gneE10 gneE13"/>
    </vehicle>
    <vehicle id="939" depart="375.60">
        <route edges="-gneE3 gneE1"/>
    </vehicle>
    <vehicle id="942" depart="376.80">
        <route edges="-gneE10 gneE11"/>
    </vehicle>
    <vehicle id="949" depart="379.60">
        <route edges="-gneE3 gneE1 gneE4 gneE9 gneE10"/>
    </vehicle>
    <vehicle id="950" depart="380.00">
        <route edges="-gneE0 gneE1 gneE4"/>
    </vehicle>
    <vehicle id="951" depart="380.40">
        <route edges="-gneE2 gneE0 gneE5"/>
    </vehicle>
    <vehicle id="953" depart="381.20">
        <route edges="-gneE1"/>
    </vehicle>
    <vehicle id="955" depart="382.00">
        <route edges="gneE1 gneE4 gneE9"/>
    </vehicle>
    <vehicle id="957" depart="382.80">
        <route edges="-gneE6 -gneE3 gneE1 gneE4 gneE9 gneE11"/>
    </vehicle>
    <vehicle id="963" depart="385.20">
        <route edges="-gneE0 gneE1 gneE4 gneE9 gneE10 gneE13"/>
    </vehicle>
    <vehicle id="965" depart="386.00">
        <route edges="-gneE1 gneE2"/>
    </vehicle>
    <vehicle id="966" depart="386.40">
        <route edges="-gneE14 -gneE11 -gneE9 -gneE4 -gneE1 gneE3 gneE6"/>
    </vehicle>
    <vehicle id="972" depart="388.80">
        <route edges="-gneE6 -gneE3 gneE0"/>
    </vehicle>
    <vehicle id="973" depart="389.20">
        <route edges="-gneE16 -gneE12 -gneE9 -gneE4 -gneE1 gneE3"/>
    </vehicle>
    <vehicle id="976" depart="390.40">
        <route edges="-gneE5 -gneE0 gneE1 gneE4 gneE9 gneE10 gneE13"/>
    </vehicle>
    <vehicle id="978" depart="391.20">
        <route edges="-gneE3 gneE1 gneE4 gneE9"/>
    </vehicle>
    <vehicle id="979" depart="391.60">
        <route edges="gneE12 gneE16"/>
    </vehicle>
    <vehicle id="981" depart="392.40">
        <route edges="-gneE1 gneE2 gneE7"/>
    </vehicle>
    <vehicle id="984" depart="393.60">
        <route edges="gneE1 gneE4 gneE9 gneE10 gneE13"/>
    </vehicle>
    <vehicle id="990" depart="396.00">
        <route edges="-gneE10 gneE12"/>
    </vehicle>
    <vehicle id="996" depart="398.40">
        <route edges="-gneE0 gneE1 gneE4 gneE9 gneE11 gneE14"/>
    </vehicle>
    <vehicle id="1001" depart="400.40">
        <route edges="-gneE2 gneE3"/>
    </vehicle>
    <vehicle id="1002" depart="400.80">
        <route edges="-gneE6 -gneE3 gneE1 gneE4 gneE9 gneE11"/>
    </vehicle>
    <vehicle id="1005" depart="402.00">
        <route edges="-gneE9 -gneE4"/>
    </vehicle>
    <vehicle id="1006" depart="402.40">
        <route edges="-gneE1 gneE2"/>
    </vehicle>
    <vehicle id="1011" depart="404.40">
        <route edges="-gneE11 -gneE9 -gneE4 -gneE1"/>
    </vehicle>
    <vehicle id="1017" depart="406.80">
        <route edges="gneE0"/>
    </vehicle>
    <vehicle id="1018" depart="407.20">
        <route edges="-gneE16 -gneE12 -gneE9"/>
    </vehicle>
    <vehicle id="1022" depart="408.80">
        <route edges="-gneE16 -gneE12 -gneE9 -gneE4"/>
    </vehicle>
    <vehicle id="1024" depart="409.60">
        <route edges="-gneE16 -gneE12 -gneE9 -gneE4 -gneE1 gneE2 gneE7"/>
    </vehicle>
    <vehicle id="1026" depart="410.40">
        <route edges="-gneE16 -gneE12 gneE10"/>
    </vehicle>
    <vehicle id="1037" depart="414.80">
        <route edges="-gneE10 gneE12"/>
    </vehicle>
    <vehicle id="1039" depart="415.60">
        <route edges="gneE1 gneE4 gneE9 gneE10 gneE13"/>
    </vehicle>
    <vehicle id="1048" depart="419.20">
        <route edges="-gneE6 -gneE3 gneE1 gneE4 gneE9 gneE11 gneE14"/>
    </vehicle>
    <vehicle id="1054" depart="421.60">
        <route edges="-gneE0"/>
    </vehicle>
    <vehicle id="1057" depart="422.80">
        <route edges="-gneE7 -gneE2 gneE0 gneE5"/>
    </vehicle>
    <vehicle id="1061" depart="424.40">
        <route edges="-gneE14 -gneE11 -gneE9"/>
    </vehicle>
    <vehicle id="1062" depart="424.80">
        <route edges="-gneE9 -gneE4 -gneE1 gneE2 gneE7"/>
    </vehicle>
    <vehicle id="1072" depart="428.80">
        <route edges="-gneE10"/>
    </vehicle>
    <vehicle id="1073" depart="429.20">
        <route edges="-gneE4 -gneE1 gneE3 gneE6"/>
    </vehicle>
    <vehicle id="1075" depart="430.00">
        <route edges="gneE3 gneE6"/>
    </vehicle>
    <vehicle id="1084" depart="433.60">
        <route edges="-gneE4 -gneE1 gneE2"/>
    </vehicle>
    <vehicle id="1085" depart="434.00">
        <route edges="-gneE5 -gneE0 gneE2 gneE7"/>
    </vehicle>
    <vehicle id="1086" depart="434.40">
        <route edges="-gneE9 -gneE4 -gneE1 gneE3"/>
    </vehicle>
    <vehicle id="1091" depart="436.40">
        <route edges="-gneE2 gneE0 gneE5"/>
    </vehicle>
    <vehicle id="1098" depart="439.20">
        <route edges="gneE1 gneE4 gneE9"/>
    </vehicle>