<?xml version="1.0" encoding="UTF-8"?>

<!-- generated on 2021-09-29 19:30:54 by Eclipse SUMO duarouter Version 1.9.2
<configuration xmlns:xsi="http://www.w3.org/2001/XMLSchema-instance" xsi:noNamespaceSchemaLocation="http://sumo.dlr.de/xsd/duarouterConfiguration.xsd">

    <input>
        <net-file value="/home/sonic/Desktop/nets/case03/intersection.net.xml"/>
        <route-files value="trips.trips.xml"/>
    </input>

    <output>
        <output-file value="intersection_random44.rou.xml"/>
        <alternatives-output value="intersection_random44.rou.alt.xml"/>
    </output>

    <time>
        <begin value="0"/>
        <end value="3600.0"/>
    </time>

    <report>
        <no-warnings value="true"/>
        <ignore-errors value="true"/>
        <no-step-log value="true"/>
    </report>

</configuration>
-->

<routes xmlns:xsi="http://www.w3.org/2001/XMLSchema-instance" xsi:noNamespaceSchemaLocation="http://sumo.dlr.de/xsd/routes_file.xsd">
    <vehicle id="5" depart="2.00">
        <route edges="gneE1 gneE4 gneE9 gneE11 gneE14"/>
    </vehicle>
    <vehicle id="8" depart="3.20">
        <route edges="gneE2"/>
    </vehicle>
    <vehicle id="9" depart="3.60">
        <route edges="-gneE3 gneE1"/>
    </vehicle>
    <vehicle id="18" depart="7.20">
        <route edges="-gneE14 -gneE11 -gneE9 -gneE4 -gneE1 gneE3"/>
    </vehicle>
    <vehicle id="22" depart="8.80">
        <route edges="-gneE12 gneE10 gneE13"/>
    </vehicle>
    <vehicle id="23" depart="9.20">
        <route edges="-gneE16 -gneE12 -gneE9 -gneE4 -gneE1 gneE3 gneE6"/>
    </vehicle>
    <vehicle id="30" depart="12.00">
        <route edges="-gneE9 -gneE4 -gneE1"/>
    </vehicle>
    <vehicle id="37" depart="14.80">
        <route edges="-gneE4 -gneE1"/>
    </vehicle>
    <vehicle id="42" depart="16.80">
        <route edges="-gneE5 -gneE0 gneE2 gneE7"/>
    </vehicle>
    <vehicle id="44" depart="17.60">
        <route edges="-gneE13 -gneE10 gneE11 gneE14"/>
    </vehicle>
    <vehicle id="45" depart="18.00">
        <route edges="-gneE6 -gneE3 gneE1 gneE4 gneE9 gneE10"/>
    </vehicle>
    <vehicle id="46" depart="18.40">
        <route edges="-gneE12 gneE10 gneE13"/>
    </vehicle>
    <vehicle id="47" depart="18.80">
        <route edges="-gneE6 -gneE3 gneE1 gneE4 gneE9"/>
    </vehicle>
    <vehicle id="49" depart="19.60">
        <route edges="-gneE9 -gneE4 -gneE1"/>
    </vehicle>
    <vehicle id="51" depart="20.40">
        <route edges="-gneE1 gneE3 gneE6"/>
    </vehicle>
    <vehicle id="54" depart="21.60">
        <route edges="-gneE11 -gneE9 -gneE4 -gneE1 gneE2 gneE7"/>
    </vehicle>
    <vehicle id="62" depart="24.80">
        <route edges="-gneE5 -gneE0 gneE2 gneE7"/>
    </vehicle>
    <vehicle id="65" depart="26.00">
        <route edges="gneE4 gneE9 gneE11 gneE14"/>
    </vehicle>
    <vehicle id="67" depart="26.80">
        <route edges="-gneE11"/>
    </vehicle>
    <vehicle id="68" depart="27.20">
        <route edges="-gneE3 gneE1 gneE4"/>
    </vehicle>
    <vehicle id="73" depart="29.20">
        <route edges="gneE0"/>
    </vehicle>
    <vehicle id="74" depart="29.60">
        <route edges="-gneE11 -gneE9 -gneE4 -gneE1 gneE2"/>
    </vehicle>
    <vehicle id="76" depart="30.40">
        <route edges="gneE4 gneE9 gneE11 gneE14"/>
    </vehicle>
    <vehicle id="78" depart="31.20">
        <route edges="-gneE3 gneE1"/>
    </vehicle>
    <vehicle id="80" depart="32.00">
        <route edges="-gneE1 gneE2"/>
    </vehicle>
    <vehicle id="86" depart="34.40">
        <route edges="-gneE13 -gneE10 gneE12 gneE16"/>
    </vehicle>
    <vehicle id="87" depart="34.80">
        <route edges="-gneE5 -gneE0 gneE1 gneE4 gneE9 gneE10"/>
    </vehicle>
    <vehicle id="90" depart="36.00">
        <route edges="-gneE1"/>
    </vehicle>
    <vehicle id="95" depart="38.00">
        <route edges="-gneE0 gneE1 gneE4"/>
    </vehicle>
    <vehicle id="101" depart="40.40">
        <route edges="-gneE9 -gneE4 -gneE1 gneE2 gneE7"/>
    </vehicle>
    <vehicle id="104" depart="41.60">
        <route edges="-gneE14 -gneE11 -gneE9"/>
    </vehicle>
    <vehicle id="105" depart="42.00">
        <route edges="gneE1 gneE4 gneE9"/>
    </vehicle>
    <vehicle id="108" depart="43.20">
        <route edges="-gneE10 gneE11"/>
    </vehicle>
    <vehicle id="116" depart="46.40">
        <route edges="-gneE2 gneE3 gneE6"/>
    </vehicle>
    <vehicle id="117" depart="46.80">
        <route edges="-gneE9 -gneE4"/>
    </vehicle>
    <vehicle id="118" depart="47.20">
        <route edges="-gneE13 -gneE10 gneE11"/>
    </vehicle>
    <vehicle id="120" depart="48.00">
        <route edges="-gneE6 -gneE3 gneE1 gneE4 gneE9 gneE11"/>
    </vehicle>
    <vehicle id="126" depart="50.40">
        <route edges="-gneE5 -gneE0 gneE1 gneE4 gneE9 gneE11 gneE14"/>
    </vehicle>
    <vehicle id="134" depart="53.60">
        <route edges="gneE4 gneE9 gneE11 gneE14"/>
    </vehicle>
    <vehicle id="139" depart="55.60">
        <route edges="-gneE13 -gneE10"/>
    </vehicle>
    <vehicle id="141" depart="56.40">
        <route edges="gneE11 gneE14"/>
    </vehicle>
    <vehicle id="143" depart="57.20">
        <route edges="-gneE7 -gneE2 gneE3"/>
    </vehicle>
    <vehicle id="144" depart="57.60">
        <route edges="-gneE12 -gneE9 -gneE4 -gneE1 gneE3"/>
    </vehicle>
    <vehicle id="146" depart="58.40">
        <route edges="-gneE7 -gneE2 gneE0"/>
    </vehicle>
    <vehicle id="148" depart="59.20">
        <route edges="gneE10 gneE13"/>
    </vehicle>
    <vehicle id="149" depart="59.60">
        <route edges="-gneE3 gneE0"/>
    </vehicle>
    <vehicle id="157" depart="62.80">
        <route edges="-gneE6 -gneE3 gneE1"/>
    </vehicle>
    <vehicle id="159" depart="63.60">
        <route edges="-gneE13 -gneE10 gneE11 gneE14"/>
    </vehicle>
    <vehicle id="169" depart="67.60">
        <route edges="-gneE4 -gneE1 gneE3 gneE6"/>
    </vehicle>
    <vehicle id="173" depart="69.20">
        <route edges="-gneE3 gneE1 gneE4 gneE9 gneE11"/>
    </vehicle>
    <vehicle id="181" depart="72.40">
        <route edges="-gneE5 -gneE0 gneE1"/>
    </vehicle>
    <vehicle id="183" depart="73.20">
        <route edges="-gneE11"/>
    </vehicle>
    <vehicle id="185" depart="74.00">
        <route edges="-gneE14 -gneE11 gneE12 gneE16"/>
    </vehicle>
    <vehicle id="187" depart="74.80">
        <route edges="-gneE5 -gneE0 gneE1 gneE4 gneE9 gneE10"/>
    </vehicle>
    <vehicle id="193" depart="77.20">
        <route edges="-gneE2 gneE3"/>
    </vehicle>
    <vehicle id="195" depart="78.00">
        <route edges="-gneE14 -gneE11 -gneE9"/>
    </vehicle>
    <vehicle id="202" depart="80.80">
        <route edges="-gneE3 gneE0 gneE5"/>
    </vehicle>
    <vehicle id="210" depart="84.00">
        <route edges="-gneE2 gneE0 gneE5"/>
    </vehicle>
    <vehicle id="213" depart="85.20">
        <route edges="-gneE16 -gneE12"/>
    </vehicle>
    <vehicle id="214" depart="85.60">
        <route edges="gneE9 gneE10"/>
    </vehicle>
    <vehicle id="218" depart="87.20">
        <route edges="-gneE9 -gneE4"/>
    </vehicle>
    <vehicle id="219" depart="87.60">
        <route edges="gneE11 gneE14"/>
    </vehicle>
    <vehicle id="227" depart="90.80">
        <route edges="gneE9 gneE10 gneE13"/>
    </vehicle>
    <vehicle id="233" depart="93.20">
        <route edges="-gneE3"/>
    </vehicle>
    <vehicle id="235" depart="94.00">
        <route edges="-gneE12 -gneE9 -gneE4 -gneE1"/>
    </vehicle>
    <vehicle id="238" depart="95.20">
        <route edges="-gneE16 -gneE12 -gneE9 -gneE4"/>
    </vehicle>
    <vehicle id="239" depart="95.60">
        <route edges="-gneE11 -gneE9 -gneE4 -gneE1 gneE2"/>
    </vehicle>
    <vehicle id="241" depart="96.40">
        <route edges="-gneE5 -gneE0 gneE2"/>
    </vehicle>
    <vehicle id="244" depart="97.60">
        <route edges="-gneE14 -gneE11 -gneE9 -gneE4 -gneE1"/>
    </vehicle>
    <vehicle id="248" depart="99.20">
        <route edges="-gneE6 -gneE3 gneE0"/>
    </vehicle>
    <vehicle id="255" depart="102.00">
        <route edges="-gneE6 -gneE3 gneE0"/>
    </vehicle>
    <vehicle id="260" depart="104.00">
        <route edges="gneE4 gneE9 gneE11"/>
    </vehicle>
    <vehicle id="266" depart="106.40">
        <route edges="-gneE12 gneE10 gneE13"/>
    </vehicle>
    <vehicle id="269" depart="107.60">
        <route edges="gneE0"/>
    </vehicle>
    <vehicle id="270" depart="108.00">
        <route edges="-gneE12 -gneE9 -gneE4"/>
    </vehicle>
    <vehicle id="272" depart="108.80">
        <route edges="-gneE4 -gneE1 gneE3 gneE6"/>
    </vehicle>
    <vehicle id="277" depart="110.80">
        <route edges="-gneE6 -gneE3"/>
    </vehicle>
    <vehicle id="280" depart="112.00">
        <route edges="-gneE9 -gneE4 -gneE1 gneE2 gneE7"/>
    </vehicle>
    <vehicle id="295" depart="118.00">
        <route edges="gneE4 gneE9 gneE11"/>
    </vehicle>
    <vehicle id="297" depart="118.80">
        <route edges="-gneE5 -gneE0 gneE1"/>
    </vehicle>
    <vehicle id="298" depart="119.20">
        <route edges="-gneE9 -gneE4 -gneE1 gneE3 gneE6"/>
    </vehicle>
    <vehicle id="299" depart="119.60">
        <route edges="-gneE14 -gneE11 -gneE9"/>
    </vehicle>
    <vehicle id="304" depart="121.60">
        <route edges="gneE1 gneE4"/>
    </vehicle>
    <vehicle id="309" depart="123.60">
        <route edges="-gneE2 gneE0"/>
    </vehicle>
    <vehicle id="311" depart="124.40">
        <route edges="gneE11"/>
    </vehicle>
    <vehicle id="321" depart="128.40">
        <route edges="-gneE4 -gneE1 gneE2 gneE7"/>
    </vehicle>
    <vehicle id="323" depart="129.20">
        <route edges="-gneE4 -gneE1 gneE3 gneE6"/>
    </vehicle>
    <vehicle id="330" depart="132.00">
        <route edges="-gneE16 -gneE12 -gneE9 -gneE4 -gneE1"/>
    </vehicle>
    <vehicle id="333" depart="133.20">
        <route edges="-gneE6 -gneE3 gneE1 gneE4 gneE9 gneE10"/>
    </vehicle>
    <vehicle id="340" depart="136.00">
        <route edges="-gneE12 -gneE9 -gneE4 -gneE1 gneE3"/>
    </vehicle>
    <vehicle id="342" depart="136.80">
        <route edges="-gneE0 gneE1 gneE4 gneE9 gneE10 gneE13"/>
    </vehicle>
    <vehicle id="343" depart="137.20">
        <route edges="-gneE11 -gneE9 -gneE4 -gneE1 gneE2"/>
    </vehicle>
    <vehicle id="354" depart="141.60">
        <route edges="-gneE0 gneE1 gneE4 gneE9 gneE11 gneE14"/>
    </vehicle>
    <vehicle id="359" depart="143.60">
        <route edges="-gneE6 -gneE3 gneE0 gneE5"/>
    </vehicle>
    <vehicle id="360" depart="144.00">
        <route edges="gneE0"/>
    </vehicle>
    <vehicle id="361" depart="144.40">
        <route edges="gneE1 gneE4"/>
    </vehicle>
    <vehicle id="366" depart="146.40">
        <route edges="-gneE9 -gneE4 -gneE1 gneE3"/>
    </vehicle>
    <vehicle id="383" depart="153.20">
        <route edges="-gneE13 -gneE10 gneE12"/>
    </vehicle>
    <vehicle id="391" depart="156.40">
        <route edges="-gneE2 gneE0"/>
    </vehicle>
    <vehicle id="393" depart="157.20">
        <route edges="-gneE13 -gneE10"/>
    </vehicle>
    <vehicle id="394" depart="157.60">
        <route edges="-gneE3 gneE1 gneE4 gneE9 gneE10 gneE13"/>
    </vehicle>
    <vehicle id="413" depart="165.20">
        <route edges="gneE4 gneE9 gneE10"/>
    </vehicle>
    <vehicle id="425" depart="170.00">
        <route edges="-gneE2 gneE0 gneE5"/>
    </vehicle>
    <vehicle id="429" depart="171.60">
        <route edges="-gneE9 -gneE4"/>
    </vehicle>
    <vehicle id="430" depart="172.00">
        <route edges="-gneE2 gneE0"/>
    </vehicle>
    <vehicle id="438" depart="175.20">
        <route edges="-gneE4 -gneE1 gneE2"/>
    </vehicle>
    <vehicle id="443" depart="177.20">
        <route edges="-gneE6 -gneE3 gneE1 gneE4"/>
    </vehicle>
    <vehicle id="446" depart="178.40">
        <route edges="-gneE10 gneE11"/>
    </vehicle>
    <vehicle id="449" depart="179.60">
        <route edges="-gneE14 -gneE11 -gneE9 -gneE4 -gneE1 gneE2 gneE7"/>
    </vehicle>
    <vehicle id="456" depart="182.40">
        <route edges="gneE9 gneE11 gneE14"/>
    </vehicle>
    <vehicle id="457" depart="182.80">
        <route edges="-gneE0 gneE2"/>
    </vehicle>
    <vehicle id="458" depart="183.20">
        <route edges="-gneE5 -gneE0"/>
    </vehicle>
    <vehicle id="462" depart="184.80">
        <route edges="-gneE14 -gneE11 -gneE9 -gneE4 -gneE1 gneE2 gneE7"/>
    </vehicle>
    <vehicle id="463" depart="185.20">
        <route edges="-gneE3 gneE0"/>
    </vehicle>
    <vehicle id="465" depart="186.00">
        <route edges="-gneE11"/>
    </vehicle>
    <vehicle id="472" depart="188.80">
        <route edges="gneE10"/>
    </vehicle>
    <vehicle id="478" depart="191.20">
        <route edges="gneE2 gneE7"/>
    </vehicle>
    <vehicle id="481" depart="192.40">
        <route edges="-gneE1 gneE3"/>
    </vehicle>
    <vehicle id="483" depart="193.20">
        <route edges="-gneE16 -gneE12 -gneE9 -gneE4 -gneE1"/>
    </vehicle>
    <vehicle id="490" depart="196.00">
        <route edges="-gneE7 -gneE2 gneE0"/>
    </vehicle>
    <vehicle id="495" depart="198.00">
        <route edges="-gneE9 -gneE4 -gneE1 gneE2"/>
    </vehicle>
    <vehicle id="497" depart="198.80">
        <route edges="-gneE11 -gneE9 -gneE4 -gneE1 gneE3 gneE6"/>
    </vehicle>
    <vehicle id="505" depart="202.00">
        <route edges="-gneE9 -gneE4 -gneE1 gneE3 gneE6"/>
    </vehicle>
    <vehicle id="509" depart="203.60">
        <route edges="-gneE9 -gneE4 -gneE1 gneE3"/>
    </vehicle>
    <vehicle id="510" depart="204.00">
        <route edges="-gneE5 -gneE0 gneE1 gneE4 gneE9 gneE11"/>
    </vehicle>
    <vehicle id="513" depart="205.20">
        <route edges="-gneE14 -gneE11 -gneE9 -gneE4 -gneE1 gneE2 gneE7"/>
    </vehicle>
    <vehicle id="514" depart="205.60">
        <route edges="-gneE12 -gneE9 -gneE4 -gneE1"/>
    </vehicle>
    <vehicle id="518" depart="207.20">
        <route edges="-gneE12 -gneE9 -gneE4"/>
    </vehicle>
    <vehicle id="523" depart="209.20">
        <route edges="-gneE3 gneE0 gneE5"/>
    </vehicle>
    <vehicle id="526" depart="210.40">
        <route edges="gneE1 gneE4 gneE9"/>
    </vehicle>
    <vehicle id="537" depart="214.80">
        <route edges="-gneE5 -gneE0 gneE2"/>
    </vehicle>
    <vehicle id="539" depart="215.60">
        <route edges="-gneE14 -gneE11"/>
    </vehicle>
    <vehicle id="543" depart="217.20">
        <route edges="-gneE16 -gneE12 -gneE9"/>
    </vehicle>
    <vehicle id="546" depart="218.40">
        <route edges="-gneE7 -gneE2 gneE0 gneE5"/>
    </vehicle>
    <vehicle id="549" depart="219.60">
        <route edges="-gneE1 gneE3 gneE6"/>
    </vehicle>
    <vehicle id="556" depart="222.40">
        <route edges="gneE12"/>
    </vehicle>
    <vehicle id="557" depart="222.80">
        <route edges="-gneE4 -gneE1 gneE3 gneE6"/>
    </vehicle>
    <vehicle id="558" depart="223.20">
        <route edges="-gneE11 -gneE9 -gneE4 -gneE1 gneE2 gneE7"/>
    </vehicle>
    <vehicle id="562" depart="224.80">
        <route edges="-gneE12 -gneE9 -gneE4"/>
    </vehicle>
    <vehicle id="564" depart="225.60">
        <route edges="-gneE7 -gneE2 gneE3 gneE6"/>
    </vehicle>
    <vehicle id="568" depart="227.20">
        <route edges="-gneE16 -gneE12"/>
    </vehicle>
    <vehicle id="570" depart="228.00">
        <route edges="-gneE7 -gneE2 gneE0 gneE5"/>
    </vehicle>
    <vehicle id="571" depart="228.40">
        <route edges="-gneE14 -gneE11 gneE12 gneE16"/>
    </vehicle>
    <vehicle id="577" depart="230.80">
        <route edges="gneE12"/>
    </vehicle>
    <vehicle id="579" depart="231.60">
        <route edges="-gneE2 gneE3 gneE6"/>
    </vehicle>
    <vehicle id="581" depart="232.40">
        <route edges="-gneE16 -gneE12 -gneE9 -gneE4 -gneE1"/>
    </vehicle>
    <vehicle id="585" depart="234.00">
        <route edges="-gneE16 -gneE12"/>
    </vehicle>
    <vehicle id="592" depart="236.80">
        <route edges="-gneE13 -gneE10 gneE12 gneE16"/>
    </vehicle>
    <vehicle id="601" depart="240.40">
        <route edges="gneE0 gneE5"/>
    </vehicle>
    <vehicle id="605" depart="242.00">
        <route edges="-gneE12 -gneE9 -gneE4 -gneE1"/>
    </vehicle>
    <vehicle id="610" depart="244.00">
        <route edges="-gneE5 -gneE0 gneE2"/>
    </vehicle>
    <vehicle id="612" depart="244.80">
        <route edges="-gneE13 -gneE10 gneE11"/>
    </vehicle>
    <vehicle id="613" depart="245.20">
        <route edges="-gneE16 -gneE12 -gneE9 -gneE4 -gneE1 gneE3"/>
    </vehicle>
    <vehicle id="614" depart="245.60">
        <route edges="gneE4"/>
    </vehicle>
    <vehicle id="616" depart="246.40">
        <route edges="gneE1 gneE4 gneE9 gneE11"/>
    </vehicle>
    <vehicle id="617" depart="246.80">
        <route edges="-gneE16 -gneE12 -gneE9 -gneE4 -gneE1 gneE3"/>
    </vehicle>
    <vehicle id="619" depart="247.60">
        <route edges="gneE4 gneE9 gneE11 gneE14"/>
    </vehicle>
    <vehicle id="620" depart="248.00">
        <route edges="-gneE16 -gneE12"/>
    </vehicle>
    <vehicle id="623" depart="249.20">
        <route edges="-gneE11 gneE12 gneE16"/>
    </vehicle>
    <vehicle id="625" depart="250.00">
        <route edges="-gneE11"/>
    </vehicle>
    <vehicle id="627" depart="250.80">
        <route edges="-gneE14 -gneE11 -gneE9 -gneE4 -gneE1 gneE3 gneE6"/>
    </vehicle>
    <vehicle id="630" depart="252.00">
        <route edges="-gneE14 -gneE11 gneE12"/>
    </vehicle>
    <vehicle id="636" depart="254.40">
        <route edges="gneE1 gneE4 gneE9 gneE10"/>
    </vehicle>
    <vehicle id="637" depart="254.80">
        <route edges="-gneE14 -gneE11 -gneE9 -gneE4"/>
    </vehicle>
    <vehicle id="638" depart="255.20">
        <route edges="-gneE10 gneE11 gneE14"/>
    </vehicle>
    <vehicle id="639" depart="255.60">
        <route edges="-gneE16 -gneE12 -gneE9 -gneE4 -gneE1 gneE2 gneE7"/>
    </vehicle>
    <vehicle id="643" depart="257.20">
        <route edges="-gneE16 -gneE12 -gneE9 -gneE4 -gneE1 gneE2 gneE7"/>
    </vehicle>
    <vehicle id="644" depart="257.60">
        <route edges="-gneE11 gneE12 gneE16"/>
    </vehicle>
    <vehicle id="647" depart="258.80">
        <route edges="gneE4 gneE9 gneE11 gneE14"/>
    </vehicle>
    <vehicle id="649" depart="259.60">
        <route edges="-gneE9 -gneE4 -gneE1 gneE2 gneE7"/>
    </vehicle>
    <vehicle id="650" depart="260.00">
        <route edges="-gneE12"/>
    </vehicle>
    <vehicle id="660" depart="264.00">
        <route edges="-gneE6 -gneE3 gneE1 gneE4 gneE9 gneE11"/>
    </vehicle>
    <vehicle id="662" depart="264.80">
        <route edges="-gneE14 -gneE11"/>
    </vehicle>
    <vehicle id="663" depart="265.20">
        <route edges="-gneE14 -gneE11"/>
    </vehicle>
    <vehicle id="665" depart="266.00">
        <route edges="-gneE2 gneE3 gneE6"/>
    </vehicle>
    <vehicle id="669" depart="267.60">
        <route edges="-gneE7 -gneE2 gneE0"/>
    </vehicle>
    <vehicle id="670" depart="268.00">
        <route edges="-gneE2 gneE3 gneE6"/>
    </vehicle>
    <vehicle id="680" depart="272.00">
        <route edges="-gneE16 -gneE12 -gneE9 -gneE4 -gneE1"/>
    </vehicle>
    <vehicle id="696" depart="278.40">
        <route edges="-gneE9 -gneE4 -gneE1"/>
    </vehicle>
    <vehicle id="699" depart="279.60">
        <route edges="gneE12 gneE16"/>
    </vehicle>
    <vehicle id="701" depart="280.40">
        <route edges="-gneE4 -gneE1"/>
    </vehicle>
    <vehicle id="702" depart="280.80">
        <route edges="gneE12 gneE16"/>
    </vehicle>
    <vehicle id="705" depart="282.00">
        <route edges="-gneE3 gneE0 gneE5"/>
    </vehicle>
    <vehicle id="718" depart="287.20">
        <route edges="-gneE13 -gneE10 gneE11 gneE14"/>
    </vehicle>
    <vehicle id="720" depart="288.00">
        <route edges="-gneE14 -gneE11"/>
    </vehicle>
    <vehicle id="721" depart="288.40">
        <route edges="-gneE4 -gneE1 gneE3"/>
    </vehicle>
    <vehicle id="722" depart="288.80">
        <route edges="-gneE10 gneE11 gneE14"/>
    </vehicle>
    <vehicle id="726" depart="290.40">
        <route edges="-gneE6 -gneE3 gneE1"/>
    </vehicle>
    <vehicle id="728" depart="291.20">
        <route edges="-gneE5 -gneE0 gneE2"/>
    </vehicle>
    <vehicle id="730" depart="292.00">
        <route edges="-gneE12 -gneE9 -gneE4"/>
    </vehicle>
    <vehicle id="731" depart="292.40">
        <route edges="-gneE6 -gneE3 gneE0"/>
    </vehicle>
    <vehicle id="733" depart="293.20">
        <route edges="-gneE7 -gneE2"/>
    </vehicle>
    <vehicle id="737" depart="294.80">
        <route edges="gneE1 gneE4 gneE9 gneE10"/>
    </vehicle>
    <vehicle id="740" depart="296.00">
        <route edges="-gneE16 -gneE12 -gneE9 -gneE4 -gneE1 gneE3 gneE6"/>
    </vehicle>
    <vehicle id="743" depart="297.20">
        <route edges="-gneE12 gneE10 gneE13"/>
    </vehicle>
    <vehicle id="745" depart="298.00">
        <route edges="gneE1 gneE4 gneE9"/>
    </vehicle>
    <vehicle id="748" depart="299.20">
        <route edges="-gneE6 -gneE3 gneE0 gneE5"/>
    </vehicle>
    <vehicle id="751" depart="300.40">
        <route edges="-gneE14 -gneE11 -gneE9 -gneE4 -gneE1"/>
    </vehicle>
    <vehicle id="752" depart="300.80">
        <route edges="gneE1"/>
    </vehicle>
    <vehicle id="753" depart="301.20">
        <route edges="-gneE2 gneE0 gneE5"/>
    </vehicle>
    <vehicle id="758" depart="303.20">
        <route edges="-gneE6 -gneE3 gneE1 gneE4 gneE9 gneE10"/>
    </vehicle>
    <vehicle id="760" depart="304.00">
        <route edges="-gneE7 -gneE2 gneE3 gneE6"/>
    </vehicle>
    <vehicle id="762" depart="304.80">
        <route edges="-gneE16 -gneE12 -gneE9 -gneE4 -gneE1 gneE2"/>
    </vehicle>
    <vehicle id="764" depart="305.60">
        <route edges="-gneE11 -gneE9 -gneE4"/>
    </vehicle>
    <vehicle id="765" depart="306.00">
        <route edges="-gneE11 -gneE9 -gneE4 -gneE1 gneE3"/>
    </vehicle>
    <vehicle id="769" depart="307.60">
        <route edges="-gneE13 -gneE10 gneE11 gneE14"/>
    </vehicle>
    <vehicle id="774" depart="309.60">
        <route edges="-gneE13 -gneE10 gneE12 gneE16"/>
    </vehicle>
    <vehicle id="778" depart="311.20">
        <route edges="-gneE9 -gneE4 -gneE1"/>
    </vehicle>
    <vehicle id="781" depart="312.40">
        <route edges="gneE1 gneE4"/>
    </vehicle>
    <vehicle id="783" depart="313.20">
        <route edges="gneE4 gneE9 gneE11"/>
    </vehicle>
    <vehicle id="786" depart="314.40">
        <route edges="gneE3 gneE6"/>
    </vehicle>
    <vehicle id="797" depart="318.80">
        <route edges="-gneE13 -gneE10 gneE12 gneE16"/>
    </vehicle>
    <vehicle id="798" depart="319.20">
        <route edges="-gneE11 gneE12"/>
    </vehicle>
    <vehicle id="799" depart="319.60">
        <route edges="-gneE5 -gneE0"/>
    </vehicle>
    <vehicle id="806" depart="322.40">
        <route edges="-gneE16 -gneE12 gneE10"/>
    </vehicle>
    <vehicle id="809" depart="323.60">
        <route edges="-gneE11 -gneE9 -gneE4"/>
    </vehicle>
    <vehicle id="810" depart="324.00">
        <route edges="-gneE6 -gneE3 gneE1 gneE4 gneE9 gneE11 gneE14"/>
    </vehicle>
    <vehicle id="811" depart="324.40">
        <route edges="-gneE11 -gneE9"/>
    </vehicle>
    <vehicle id="815" depart="326.00">
        <route edges="-gneE14 -gneE11 gneE12"/>
    </vehicle>
    <vehicle id="818" depart="327.20">
        <route edges="-gneE0 gneE1"/>
    </vehicle>
    <vehicle id="823" depart="329.20">
        <route edges="-gneE3 gneE0"/>
    </vehicle>
    <vehicle id="832" depart="332.80">
        <route edges="-gneE0 gneE1 gneE4 gneE9 gneE10"/>
    </vehicle>
    <vehicle id="833" depart="333.20">
        <route edges="-gneE1"/>
    </vehicle>
    <vehicle id="835" depart="334.00">
        <route edges="-gneE3 gneE1 gneE4"/>
    </vehicle>
    <vehicle id="837" depart="334.80">
        <route edges="gneE1 gneE4 gneE9 gneE11 gneE14"/>
    </vehicle>
    <vehicle id="838" depart="335.20">
        <route edges="-gneE1 gneE3"/>
    </vehicle>
    <vehicle id="839" depart="335.60">
        <route edges="-gneE5 -gneE0 gneE2 gneE7"/>
    </vehicle>
    <vehicle id="840" depart="336.00">
        <route edges="-gneE16 -gneE12"/>
    </vehicle>
    <vehicle id="845" depart="338.00">
        <route edges="-gneE14 -gneE11"/>
    </vehicle>
    <vehicle id="847" depart="338.80">
        <route edges="-gneE1 gneE3"/>
    </vehicle>
    <vehicle id="848" depart="339.20">
        <route edges="-gneE16 -gneE12 -gneE9 -gneE4 -gneE1 gneE3 gneE6"/>
    </vehicle>
    <vehicle id="853" depart="341.20">
        <route edges="-gneE3 gneE1"/>
    </vehicle>
    <vehicle id="861" depart="344.40">
        <route edges="-gneE11 -gneE9 -gneE4 -gneE1 gneE2 gneE7"/>
    </vehicle>
    <vehicle id="865" depart="346.00">
        <route edges="-gneE16 -gneE12 -gneE9 -gneE4 -gneE1 gneE3 gneE6"/>
    </vehicle>
    <vehicle id="866" depart="346.40">
        <route edges="gneE1 gneE4"/>
    </vehicle>
    <vehicle id="867" depart="346.80">
        <route edges="-gneE12 gneE10"/>
    </vehicle>
    <vehicle id="868" depart="347.20">
        <route edges="-gneE0 gneE1 gneE4"/>
    </vehicle>
    <vehicle id="871" depart="348.40">
        <route edges="-gneE9"/>
    </vehicle>
    <vehicle id="883" depart="353.20">
        <route edges="-gneE14 -gneE11"/>
    </vehicle>
    <vehicle id="885" depart="354.00">
        <route edges="-gneE9 -gneE4"/>
    </vehicle>
    <vehicle id="889" depart="355.60">
        <route edges="gneE4 gneE9 gneE11 gneE14"/>
    </vehicle>
    <vehicle id="892" depart="356.80">
        <route edges="-gneE5 -gneE0 gneE1 gneE4"/>
    </vehicle>
    <vehicle id="894" depart="357.60">
        <route edges="gneE1 gneE4 gneE9 gneE10 gneE13"/>
    </vehicle>
    <vehicle id="901" depart="360.40">
        <route edges="-gneE14 -gneE11 -gneE9 -gneE4 -gneE1 gneE3 gneE6"/>
    </vehicle>
    <vehicle id="903" depart="361.20">
        <route edges="-gneE7 -gneE2 gneE3"/>
    </vehicle>
    <vehicle id="908" depart="363.20">
        <route edges="-gneE10 gneE11"/>
    </vehicle>
    <vehicle id="909" depart="363.60">
        <route edges="-gneE5 -gneE0 gneE1 gneE4 gneE9"/>
    </vehicle>
    <vehicle id="911" depart="364.40">
        <route edges="-gneE3 gneE0"/>
    </vehicle>
    <vehicle id="915" depart="366.00">
        <route edges="gneE4 gneE9"/>
    </vehicle>
    <vehicle id="917" depart="366.80">
        <route edges="-gneE1 gneE3"/>
    </vehicle>
    <vehicle id="920" depart="368.00">
        <route edges="-gneE5 -gneE0 gneE1 gneE4 gneE9 gneE10 gneE13"/>
    </vehicle>
    <vehicle id="924" depart="369.60">
        <route edges="gneE0"/>
    </vehicle>
    <vehicle id="926" depart="370.40">
        <route edges="gneE12 gneE16"/>
    </vehicle>
    <vehicle id="927" depart="370.80">
        <route edges="-gneE13 -gneE10 gneE11 gneE14"/>
    </vehicle>
    <vehicle id="932" depart="372.80">
        <route edges="-gneE14 -gneE11 -gneE9 -gneE4 -gneE1 gneE2"/>
    </vehicle>
    <vehicle id="949" depart="379.60">
        <route edges="-gneE14 -gneE11 -gneE9 -gneE4 -gneE1"/>
    </vehicle>
    <vehicle id="952" depart="380.80">
        <route edges="-gneE0"/>
    </vehicle>
    <vehicle id="957" depart="382.80">
        <route edges="gneE3 gneE6"/>
    </vehicle>
    <vehicle id="974" depart="389.60">
        <route edges="-gneE14 -gneE11 -gneE9 -gneE4 -gneE1"/>
    </vehicle>
    <vehicle id="985" depart="394.00">
        <route edges="-gneE11 -gneE9 -gneE4 -gneE1"/>
    </vehicle>
    <vehicle id="987" depart="394.80">
        <route edges="-gneE3 gneE1"/>
    </vehicle>
    <vehicle id="994" depart="397.60">
        <route edges="gneE2 gneE7"/>
    </vehicle>
    <vehicle id="1002" depart="400.80">
        <route edges="-gneE14 -gneE11 -gneE9 -gneE4 -gneE1 gneE3 gneE6"/>
    </vehicle>
    <vehicle id="1010" depart="404.00">
        <route edges="-gneE9"/>
    </vehicle>
    <vehicle id="1013" depart="405.20">
        <route edges="-gneE13 -gneE10 gneE12 gneE16"/>
    </vehicle>
    <vehicle id="1016" depart="406.40">
        <route edges="-gneE3 gneE0 gneE5"/>
    </vehicle>
    <vehicle id="1028" depart="411.20">
        <route edges="-gneE9"/>
    </vehicle>
    <vehicle id="1029" depart="411.60">
        <route edges="-gneE3 gneE1"/>
    </vehicle>
    <vehicle id="1035" depart="414.00">
        <route edges="-gneE4 -gneE1 gneE2 gneE7"/>
    </vehicle>
    <vehicle id="1046" depart="418.40">
        <route edges="-gneE10"/>
    </vehicle>
    <vehicle id="1052" depart="420.80">
        <route edges="-gneE5 -gneE0 gneE1"/>
    </vehicle>
    <vehicle id="1055" depart="422.00">
        <route edges="-gneE7 -gneE2 gneE0 gneE5"/>
    </vehicle>
    <vehicle id="1069" depart="427.60">
        <route edges="-gneE13 -gneE10 gneE11 gneE14"/>
    </vehicle>
    <vehicle id="1071" depart="428.40">
        <route edges="-gneE11 -gneE9"/>
    </vehicle>
    <vehicle id="1072" depart="428.80">
        <route edges="-gneE11 gneE12"/>
    </vehicle>
    <vehicle id="1073" depart="429.20">
        <route edges="-gneE5 -gneE0"/>
    </vehicle>
    <vehicle id="1076" depart="430.40">
        <route edges="-gneE2"/>
    </vehicle>
    <vehicle id="1080" depart="432.00">
        <route edges="-gneE3 gneE1 gneE4 gneE9 gneE10 gneE13"/>
    </vehicle>
    <vehicle id="1081" depart="432.40">
        <route edges="-gneE3"/>
    </vehicle>
    <vehicle id="1084" depart="433.60">
        <route edges="-gneE0 gneE1 gneE4 gneE9 gneE10 gneE13"/>
    </vehicle>
    <vehicle id="1087" depart="434.80">
        <route edges="gneE1 gneE4 gneE9 gneE11"/>
    </vehicle>
    <vehicle id="1088" depart="435.20">
        <route edges="-gneE10 gneE11 gneE14"/>
    </vehicle>
    <vehicle id="1093" depart="437.20">
        <route edges="-gneE7 -gneE2 gneE3"/>
    </vehicle>
    <vehicle id="1095" depart="438.00">
        <route edges="-gneE14 -gneE11 -gneE9 -gneE4 -gneE1 gneE3"/>
    </vehicle>
    <vehicle id="1107" depart="442.80">
        <route edges="-gneE0"/>
    </vehicle>