<?xml version="1.0" encoding="UTF-8"?>

<!-- generated on 2021-09-29 19:30:42 by Eclipse SUMO duarouter Version 1.9.2
<configuration xmlns:xsi="http://www.w3.org/2001/XMLSchema-instance" xsi:noNamespaceSchemaLocation="http://sumo.dlr.de/xsd/duarouterConfiguration.xsd">

    <input>
        <net-file value="/home/sonic/Desktop/nets/case03/intersection.net.xml"/>
        <route-files value="trips.trips.xml"/>
    </input>

    <output>
        <output-file value="intersection_random20.rou.xml"/>
        <alternatives-output value="intersection_random20.rou.alt.xml"/>
    </output>

    <time>
        <begin value="0"/>
        <end value="3600.0"/>
    </time>

    <report>
        <no-warnings value="true"/>
        <ignore-errors value="true"/>
        <no-step-log value="true"/>
    </report>

</configuration>
-->

<routes xmlns:xsi="http://www.w3.org/2001/XMLSchema-instance" xsi:noNamespaceSchemaLocation="http://sumo.dlr.de/xsd/routes_file.xsd">
    <vehicle id="18" depart="7.20">
        <route edges="-gneE11 -gneE9 -gneE4 -gneE1 gneE2 gneE7"/>
    </vehicle>
    <vehicle id="19" depart="7.60">
        <route edges="-gneE11 -gneE9 -gneE4"/>
    </vehicle>
    <vehicle id="21" depart="8.40">
        <route edges="-gneE0 gneE1 gneE4 gneE9 gneE11 gneE14"/>
    </vehicle>
    <vehicle id="28" depart="11.20">
        <route edges="-gneE5 -gneE0 gneE2"/>
    </vehicle>
    <vehicle id="29" depart="11.60">
        <route edges="-gneE1 gneE2 gneE7"/>
    </vehicle>
    <vehicle id="30" depart="12.00">
        <route edges="-gneE0 gneE2 gneE7"/>
    </vehicle>
    <vehicle id="40" depart="16.00">
        <route edges="-gneE0 gneE1 gneE4"/>
    </vehicle>
    <vehicle id="51" depart="20.40">
        <route edges="-gneE12 -gneE9 -gneE4"/>
    </vehicle>
    <vehicle id="59" depart="23.60">
        <route edges="-gneE5 -gneE0 gneE1 gneE4 gneE9 gneE10 gneE13"/>
    </vehicle>
    <vehicle id="61" depart="24.40">
        <route edges="-gneE11 -gneE9 -gneE4 -gneE1"/>
    </vehicle>
    <vehicle id="64" depart="25.60">
        <route edges="gneE1 gneE4"/>
    </vehicle>
    <vehicle id="73" depart="29.20">
        <route edges="-gneE11 -gneE9 -gneE4 -gneE1"/>
    </vehicle>
    <vehicle id="80" depart="32.00">
        <route edges="-gneE16 -gneE12 -gneE9 -gneE4 -gneE1 gneE3 gneE6"/>
    </vehicle>
    <vehicle id="83" depart="33.20">
        <route edges="-gneE12 gneE10"/>
    </vehicle>
    <vehicle id="85" depart="34.00">
        <route edges="-gneE6 -gneE3 gneE0 gneE5"/>
    </vehicle>
    <vehicle id="87" depart="34.80">
        <route edges="-gneE12 -gneE9 -gneE4"/>
    </vehicle>
    <vehicle id="88" depart="35.20">
        <route edges="-gneE11 gneE12"/>
    </vehicle>
    <vehicle id="90" depart="36.00">
        <route edges="-gneE16 -gneE12 -gneE9 -gneE4 -gneE1"/>
    </vehicle>
    <vehicle id="96" depart="38.40">
        <route edges="-gneE5 -gneE0 gneE1 gneE4 gneE9"/>
    </vehicle>
    <vehicle id="100" depart="40.00">
        <route edges="-gneE11 -gneE9 -gneE4 -gneE1 gneE3 gneE6"/>
    </vehicle>
    <vehicle id="103" depart="41.20">
        <route edges="-gneE3 gneE0"/>
    </vehicle>
    <vehicle id="109" depart="43.60">
        <route edges="-gneE0 gneE1 gneE4 gneE9 gneE10"/>
    </vehicle>
    <vehicle id="112" depart="44.80">
        <route edges="-gneE1 gneE3 gneE6"/>
    </vehicle>
    <vehicle id="117" depart="46.80">
        <route edges="-gneE0 gneE1 gneE4 gneE9 gneE10"/>
    </vehicle>
    <vehicle id="118" depart="47.20">
        <route edges="-gneE4 -gneE1"/>
    </vehicle>
    <vehicle id="119" depart="47.60">
        <route edges="gneE3"/>
    </vehicle>
    <vehicle id="127" depart="50.80">
        <route edges="gneE4 gneE9 gneE11"/>
    </vehicle>
    <vehicle id="132" depart="52.80">
        <route edges="-gneE2 gneE0 gneE5"/>
    </vehicle>
    <vehicle id="134" depart="53.60">
        <route edges="-gneE2 gneE3 gneE6"/>
    </vehicle>
    <vehicle id="135" depart="54.00">
        <route edges="-gneE0 gneE2"/>
    </vehicle>
    <vehicle id="139" depart="55.60">
        <route edges="-gneE3 gneE1 gneE4 gneE9 gneE11"/>
    </vehicle>
    <vehicle id="153" depart="61.20">
        <route edges="-gneE11 -gneE9"/>
    </vehicle>
    <vehicle id="154" depart="61.60">
        <route edges="gneE4 gneE9 gneE10"/>
    </vehicle>
    <vehicle id="155" depart="62.00">
        <route edges="gneE9"/>
    </vehicle>
    <vehicle id="157" depart="62.80">
        <route edges="-gneE5 -gneE0"/>
    </vehicle>
    <vehicle id="162" depart="64.80">
        <route edges="-gneE4 -gneE1 gneE2 gneE7"/>
    </vehicle>
    <vehicle id="164" depart="65.60">
        <route edges="gneE4 gneE9 gneE11"/>
    </vehicle>
    <vehicle id="168" depart="67.20">
        <route edges="-gneE2 gneE3"/>
    </vehicle>
    <vehicle id="171" depart="68.40">
        <route edges="-gneE12 -gneE9 -gneE4 -gneE1 gneE2 gneE7"/>
    </vehicle>
    <vehicle id="176" depart="70.40">
        <route edges="-gneE0 gneE2 gneE7"/>
    </vehicle>
    <vehicle id="178" depart="71.20">
        <route edges="-gneE1 gneE2 gneE7"/>
    </vehicle>
    <vehicle id="181" depart="72.40">
        <route edges="-gneE0 gneE1 gneE4 gneE9 gneE11 gneE14"/>
    </vehicle>
    <vehicle id="188" depart="75.20">
        <route edges="-gneE3 gneE1 gneE4 gneE9 gneE10 gneE13"/>
    </vehicle>
    <vehicle id="189" depart="75.60">
        <route edges="-gneE14 -gneE11 -gneE9 -gneE4 -gneE1 gneE3"/>
    </vehicle>
    <vehicle id="198" depart="79.20">
        <route edges="gneE1 gneE4 gneE9 gneE11"/>
    </vehicle>
    <vehicle id="204" depart="81.60">
        <route edges="-gneE16 -gneE12 gneE10 gneE13"/>
    </vehicle>
    <vehicle id="210" depart="84.00">
        <route edges="-gneE1"/>
    </vehicle>
    <vehicle id="212" depart="84.80">
        <route edges="-gneE5 -gneE0 gneE1 gneE4 gneE9 gneE10"/>
    </vehicle>
    <vehicle id="213" depart="85.20">
        <route edges="-gneE12 gneE10"/>
    </vehicle>
    <vehicle id="224" depart="89.60">
        <route edges="-gneE10 gneE11"/>
    </vehicle>
    <vehicle id="226" depart="90.40">
        <route edges="gneE11 gneE14"/>
    </vehicle>
    <vehicle id="230" depart="92.00">
        <route edges="-gneE1 gneE2"/>
    </vehicle>
    <vehicle id="231" depart="92.40">
        <route edges="-gneE14 -gneE11 gneE12"/>
    </vehicle>
    <vehicle id="233" depart="93.20">
        <route edges="-gneE11 -gneE9 -gneE4"/>
    </vehicle>
    <vehicle id="234" depart="93.60">
        <route edges="-gneE6 -gneE3"/>
    </vehicle>
    <vehicle id="236" depart="94.40">
        <route edges="-gneE3 gneE1 gneE4 gneE9 gneE10 gneE13"/>
    </vehicle>
    <vehicle id="238" depart="95.20">
        <route edges="-gneE7 -gneE2 gneE3"/>
    </vehicle>
    <vehicle id="244" depart="97.60">
        <route edges="-gneE1 gneE2 gneE7"/>
    </vehicle>
    <vehicle id="246" depart="98.40">
        <route edges="-gneE4 -gneE1 gneE2 gneE7"/>
    </vehicle>
    <vehicle id="248" depart="99.20">
        <route edges="gneE2 gneE7"/>
    </vehicle>
    <vehicle id="254" depart="101.60">
        <route edges="-gneE16 -gneE12 gneE10"/>
    </vehicle>
    <vehicle id="258" depart="103.20">
        <route edges="-gneE16 -gneE12 -gneE9 -gneE4 -gneE1 gneE2"/>
    </vehicle>
    <vehicle id="260" depart="104.00">
        <route edges="-gneE5 -gneE0 gneE1"/>
    </vehicle>
    <vehicle id="261" depart="104.40">
        <route edges="-gneE9 -gneE4 -gneE1 gneE2 gneE7"/>
    </vehicle>
    <vehicle id="263" depart="105.20">
        <route edges="-gneE13 -gneE10 gneE12"/>
    </vehicle>
    <vehicle id="275" depart="110.00">
        <route edges="-gneE2 gneE0 gneE5"/>
    </vehicle>
    <vehicle id="277" depart="110.80">
        <route edges="-gneE13 -gneE10"/>
    </vehicle>
    <vehicle id="279" depart="111.60">
        <route edges="gneE1 gneE4 gneE9 gneE11 gneE14"/>
    </vehicle>
    <vehicle id="286" depart="114.40">
        <route edges="-gneE11"/>
    </vehicle>
    <vehicle id="287" depart="114.80">
        <route edges="gneE10 gneE13"/>
    </vehicle>
    <vehicle id="289" depart="115.60">
        <route edges="gneE9"/>
    </vehicle>
    <vehicle id="292" depart="116.80">
        <route edges="-gneE9 -gneE4 -gneE1"/>
    </vehicle>
    <vehicle id="296" depart="118.40">
        <route edges="-gneE5 -gneE0 gneE1 gneE4 gneE9 gneE11"/>
    </vehicle>
    <vehicle id="300" depart="120.00">
        <route edges="gneE1 gneE4 gneE9 gneE11"/>
    </vehicle>
    <vehicle id="302" depart="120.80">
        <route edges="-gneE12 -gneE9"/>
    </vehicle>
    <vehicle id="309" depart="123.60">
        <route edges="-gneE11 -gneE9"/>
    </vehicle>
    <vehicle id="311" depart="124.40">
        <route edges="-gneE12 -gneE9"/>
    </vehicle>
    <vehicle id="312" depart="124.80">
        <route edges="-gneE2 gneE0"/>
    </vehicle>
    <vehicle id="316" depart="126.40">
        <route edges="-gneE14 -gneE11"/>
    </vehicle>
    <vehicle id="318" depart="127.20">
        <route edges="-gneE1 gneE2 gneE7"/>
    </vehicle>
    <vehicle id="332" depart="132.80">
        <route edges="-gneE12 -gneE9 -gneE4 -gneE1 gneE3 gneE6"/>
    </vehicle>
    <vehicle id="335" depart="134.00">
        <route edges="-gneE5 -gneE0 gneE1 gneE4 gneE9 gneE10 gneE13"/>
    </vehicle>
    <vehicle id="336" depart="134.40">
        <route edges="-gneE7 -gneE2"/>
    </vehicle>
    <vehicle id="340" depart="136.00">
        <route edges="-gneE7 -gneE2 gneE3"/>
    </vehicle>
    <vehicle id="342" depart="136.80">
        <route edges="-gneE14 -gneE11 -gneE9 -gneE4 -gneE1 gneE2"/>
    </vehicle>
    <vehicle id="343" depart="137.20">
        <route edges="-gneE1 gneE2"/>
    </vehicle>
    <vehicle id="344" depart="137.60">
        <route edges="gneE12"/>
    </vehicle>
    <vehicle id="345" depart="138.00">
        <route edges="-gneE14 -gneE11 -gneE9 -gneE4 -gneE1 gneE3 gneE6"/>
    </vehicle>
    <vehicle id="346" depart="138.40">
        <route edges="-gneE5 -gneE0 gneE1 gneE4 gneE9 gneE11"/>
    </vehicle>
    <vehicle id="356" depart="142.40">
        <route edges="-gneE16 -gneE12 -gneE9 -gneE4 -gneE1"/>
    </vehicle>
    <vehicle id="361" depart="144.40">
        <route edges="gneE0 gneE5"/>
    </vehicle>
    <vehicle id="369" depart="147.60">
        <route edges="-gneE11"/>
    </vehicle>
    <vehicle id="377" depart="150.80">
        <route edges="-gneE0 gneE1"/>
    </vehicle>
    <vehicle id="380" depart="152.00">
        <route edges="-gneE12 gneE10 gneE13"/>
    </vehicle>
    <vehicle id="387" depart="154.80">
        <route edges="-gneE3 gneE1 gneE4 gneE9"/>
    </vehicle>
    <vehicle id="388" depart="155.20">
        <route edges="-gneE5 -gneE0 gneE1 gneE4 gneE9 gneE10 gneE13"/>
    </vehicle>
    <vehicle id="391" depart="156.40">
        <route edges="gneE1 gneE4 gneE9 gneE11 gneE14"/>
    </vehicle>
    <vehicle id="395" depart="158.00">
        <route edges="-gneE13 -gneE10 gneE12"/>
    </vehicle>
    <vehicle id="398" depart="159.20">
        <route edges="-gneE11 gneE12"/>
    </vehicle>
    <vehicle id="403" depart="161.20">
        <route edges="-gneE5 -gneE0 gneE1 gneE4 gneE9 gneE10"/>
    </vehicle>
    <vehicle id="406" depart="162.40">
        <route edges="-gneE4 -gneE1 gneE3 gneE6"/>
    </vehicle>
    <vehicle id="418" depart="167.20">
        <route edges="-gneE10 gneE12"/>
    </vehicle>
    <vehicle id="419" depart="167.60">
        <route edges="-gneE3 gneE1"/>
    </vehicle>
    <vehicle id="420" depart="168.00">
        <route edges="-gneE6 -gneE3 gneE1 gneE4"/>
    </vehicle>
    <vehicle id="424" depart="169.60">
        <route edges="-gneE5 -gneE0 gneE1 gneE4 gneE9 gneE10"/>
    </vehicle>
    <vehicle id="425" depart="170.00">
        <route edges="-gneE10 gneE11 gneE14"/>
    </vehicle>
    <vehicle id="443" depart="177.20">
        <route edges="-gneE16 -gneE12 -gneE9 -gneE4 -gneE1"/>
    </vehicle>
    <vehicle id="445" depart="178.00">
        <route edges="-gneE12 -gneE9 -gneE4 -gneE1 gneE2 gneE7"/>
    </vehicle>
    <vehicle id="450" depart="180.00">
        <route edges="gneE3"/>
    </vehicle>
    <vehicle id="452" depart="180.80">
        <route edges="-gneE16 -gneE12 -gneE9 -gneE4 -gneE1"/>
    </vehicle>
    <vehicle id="458" depart="183.20">
        <route edges="gneE4"/>
    </vehicle>
    <vehicle id="459" depart="183.60">
        <route edges="-gneE0 gneE1 gneE4"/>
    </vehicle>
    <vehicle id="464" depart="185.60">
        <route edges="gneE9 gneE11"/>
    </vehicle>
    <vehicle id="467" depart="186.80">
        <route edges="-gneE12 gneE10 gneE13"/>
    </vehicle>
    <vehicle id="470" depart="188.00">
        <route edges="-gneE6 -gneE3 gneE0 gneE5"/>
    </vehicle>
    <vehicle id="473" depart="189.20">
        <route edges="-gneE0 gneE1 gneE4 gneE9 gneE11 gneE14"/>
    </vehicle>
    <vehicle id="475" depart="190.00">
        <route edges="-gneE5 -gneE0 gneE1 gneE4"/>
    </vehicle>
    <vehicle id="477" depart="190.80">
        <route edges="-gneE9 -gneE4"/>
    </vehicle>
    <vehicle id="479" depart="191.60">
        <route edges="-gneE11 gneE12"/>
    </vehicle>
    <vehicle id="481" depart="192.40">
        <route edges="-gneE1 gneE2 gneE7"/>
    </vehicle>
    <vehicle id="485" depart="194.00">
        <route edges="-gneE3 gneE1 gneE4 gneE9 gneE11"/>
    </vehicle>
    <vehicle id="490" depart="196.00">
        <route edges="gneE4 gneE9 gneE10 gneE13"/>
    </vehicle>
    <vehicle id="491" depart="196.40">
        <route edges="-gneE16 -gneE12 -gneE9 -gneE4"/>
    </vehicle>
    <vehicle id="495" depart="198.00">
        <route edges="-gneE0 gneE1 gneE4 gneE9 gneE10 gneE13"/>
    </vehicle>
    <vehicle id="498" depart="199.20">
        <route edges="-gneE1 gneE3"/>
    </vehicle>
    <vehicle id="500" depart="200.00">
        <route edges="-gneE13 -gneE10 gneE11"/>
    </vehicle>
    <vehicle id="503" depart="201.20">
        <route edges="-gneE11 -gneE9 -gneE4 -gneE1"/>
    </vehicle>
    <vehicle id="504" depart="201.60">
        <route edges="-gneE2 gneE0"/>
    </vehicle>
    <vehicle id="505" depart="202.00">
        <route edges="-gneE5 -gneE0 gneE1 gneE4 gneE9 gneE10 gneE13"/>
    </vehicle>
    <vehicle id="507" depart="202.80">
        <route edges="gneE12 gneE16"/>
    </vehicle>
    <vehicle id="514" depart="205.60">
        <route edges="-gneE13 -gneE10 gneE11 gneE14"/>
    </vehicle>
    <vehicle id="517" depart="206.80">
        <route edges="-gneE0 gneE2"/>
    </vehicle>
    <vehicle id="520" depart="208.00">
        <route edges="-gneE4 -gneE1"/>
    </vehicle>
    <vehicle id="522" depart="208.80">
        <route edges="-gneE6 -gneE3 gneE1 gneE4 gneE9 gneE11 gneE14"/>
    </vehicle>
    <vehicle id="524" depart="209.60">
        <route edges="-gneE4 -gneE1 gneE2"/>
    </vehicle>
    <vehicle id="528" depart="211.20">
        <route edges="-gneE6 -gneE3 gneE0"/>
    </vehicle>
    <vehicle id="530" depart="212.00">
        <route edges="-gneE13 -gneE10 gneE12"/>
    </vehicle>
    <vehicle id="533" depart="213.20">
        <route edges="-gneE14 -gneE11 -gneE9"/>
    </vehicle>
    <vehicle id="538" depart="215.20">
        <route edges="-gneE14 -gneE11 -gneE9 -gneE4"/>
    </vehicle>
    <vehicle id="540" depart="216.00">
        <route edges="-gneE5 -gneE0 gneE1 gneE4 gneE9 gneE10 gneE13"/>
    </vehicle>
    <vehicle id="543" depart="217.20">
        <route edges="-gneE14 -gneE11"/>
    </vehicle>
    <vehicle id="545" depart="218.00">
        <route edges="-gneE9 -gneE4 -gneE1 gneE3 gneE6"/>
    </vehicle>
    <vehicle id="547" depart="218.80">
        <route edges="-gneE4 -gneE1 gneE3 gneE6"/>
    </vehicle>
    <vehicle id="549" depart="219.60">
        <route edges="-gneE6 -gneE3"/>
    </vehicle>
    <vehicle id="556" depart="222.40">
        <route edges="gneE4 gneE9 gneE11"/>
    </vehicle>
    <vehicle id="557" depart="222.80">
        <route edges="gneE11 gneE14"/>
    </vehicle>
    <vehicle id="560" depart="224.00">
        <route edges="-gneE5 -gneE0 gneE1 gneE4 gneE9 gneE11"/>
    </vehicle>
    <vehicle id="564" depart="225.60">
        <route edges="gneE1 gneE4 gneE9 gneE10"/>
    </vehicle>
    <vehicle id="567" depart="226.80">
        <route edges="-gneE0"/>
    </vehicle>
    <vehicle id="568" depart="227.20">
        <route edges="gneE9 gneE10 gneE13"/>
    </vehicle>
    <vehicle id="569" depart="227.60">
        <route edges="-gneE2 gneE3"/>
    </vehicle>
    <vehicle id="570" depart="228.00">
        <route edges="-gneE5 -gneE0 gneE2"/>
    </vehicle>
    <vehicle id="571" depart="228.40">
        <route edges="gneE4 gneE9 gneE10 gneE13"/>
    </vehicle>
    <vehicle id="572" depart="228.80">
        <route edges="-gneE14 -gneE11 -gneE9 -gneE4 -gneE1 gneE2"/>
    </vehicle>
    <vehicle id="580" depart="232.00">
        <route edges="-gneE1"/>
    </vehicle>
    <vehicle id="582" depart="232.80">
        <route edges="-gneE4 -gneE1 gneE2"/>
    </vehicle>
    <vehicle id="584" depart="233.60">
        <route edges="-gneE16 -gneE12 gneE10"/>
    </vehicle>
    <vehicle id="588" depart="235.20">
        <route edges="-gneE2 gneE3"/>
    </vehicle>
    <vehicle id="593" depart="237.20">
        <route edges="-gneE16 -gneE12 gneE10"/>
    </vehicle>
    <vehicle id="602" depart="240.80">
        <route edges="-gneE16 -gneE12 -gneE9 -gneE4 -gneE1"/>
    </vehicle>
    <vehicle id="605" depart="242.00">
        <route edges="-gneE12 -gneE9 -gneE4 -gneE1 gneE3"/>
    </vehicle>
    <vehicle id="611" depart="244.40">
        <route edges="-gneE6 -gneE3"/>
    </vehicle>
    <vehicle id="614" depart="245.60">
        <route edges="-gneE7 -gneE2 gneE0 gneE5"/>
    </vehicle>
    <vehicle id="615" depart="246.00">
        <route edges="-gneE6 -gneE3 gneE1 gneE4 gneE9 gneE10"/>
    </vehicle>
    <vehicle id="617" depart="246.80">
        <route edges="-gneE4 -gneE1"/>
    </vehicle>
    <vehicle id="618" depart="247.20">
        <route edges="-gneE14 -gneE11 -gneE9 -gneE4 -gneE1 gneE2"/>
    </vehicle>
    <vehicle id="623" depart="249.20">
        <route edges="-gneE6 -gneE3 gneE1 gneE4 gneE9 gneE10 gneE13"/>
    </vehicle>
    <vehicle id="632" depart="252.80">
        <route edges="-gneE12 -gneE9 -gneE4"/>
    </vehicle>
    <vehicle id="634" depart="253.60">
        <route edges="gneE3 gneE6"/>
    </vehicle>
    <vehicle id="644" depart="257.60">
        <route edges="-gneE3 gneE0 gneE5"/>
    </vehicle>
    <vehicle id="645" depart="258.00">
        <route edges="-gneE6 -gneE3 gneE1 gneE4 gneE9 gneE11"/>
    </vehicle>
    <vehicle id="648" depart="259.20">
        <route edges="gneE9"/>
    </vehicle>
    <vehicle id="650" depart="260.00">
        <route edges="-gneE14 -gneE11 -gneE9 -gneE4 -gneE1 gneE2"/>
    </vehicle>
    <vehicle id="652" depart="260.80">
        <route edges="-gneE4 -gneE1 gneE2 gneE7"/>
    </vehicle>
    <vehicle id="655" depart="262.00">
        <route edges="-gneE12 -gneE9 -gneE4 -gneE1 gneE3 gneE6"/>
    </vehicle>
    <vehicle id="660" depart="264.00">
        <route edges="-gneE2 gneE3"/>
    </vehicle>
    <vehicle id="661" depart="264.40">
        <route edges="-gneE9 -gneE4 -gneE1 gneE2"/>
    </vehicle>
    <vehicle id="662" depart="264.80">
        <route edges="-gneE5 -gneE0 gneE1 gneE4"/>
    </vehicle>
    <vehicle id="666" depart="266.40">
        <route edges="-gneE7 -gneE2 gneE0 gneE5"/>
    </vehicle>
    <vehicle id="667" depart="266.80">
        <route edges="-gneE5 -gneE0 gneE1 gneE4 gneE9"/>
    </vehicle>
    <vehicle id="674" depart="269.60">
        <route edges="-gneE1 gneE3 gneE6"/>
    </vehicle>
    <vehicle id="678" depart="271.20">
        <route edges="gneE1 gneE4 gneE9 gneE11 gneE14"/>
    </vehicle>
    <vehicle id="679" depart="271.60">
        <route edges="-gneE5 -gneE0 gneE1 gneE4 gneE9"/>
    </vehicle>
    <vehicle id="684" depart="273.60">
        <route edges="-gneE14 -gneE11"/>
    </vehicle>
    <vehicle id="686" depart="274.40">
        <route edges="-gneE7 -gneE2 gneE0"/>
    </vehicle>
    <vehicle id="690" depart="276.00">
        <route edges="-gneE13 -gneE10 gneE12 gneE16"/>
    </vehicle>
    <vehicle id="695" depart="278.00">
        <route edges="gneE12 gneE16"/>
    </vehicle>
    <vehicle id="698" depart="279.20">
        <route edges="-gneE10 gneE11 gneE14"/>
    </vehicle>
    <vehicle id="701" depart="280.40">
        <route edges="-gneE4 -gneE1 gneE2"/>
    </vehicle>
    <vehicle id="710" depart="284.00">
        <route edges="gneE4 gneE9 gneE10 gneE13"/>
    </vehicle>
    <vehicle id="711" depart="284.40">
        <route edges="-gneE1 gneE2"/>
    </vehicle>
    <vehicle id="712" depart="284.80">
        <route edges="gneE1 gneE4"/>
    </vehicle>
    <vehicle id="718" depart="287.20">
        <route edges="-gneE16 -gneE12 -gneE9 -gneE4 -gneE1 gneE3"/>
    </vehicle>
    <vehicle id="719" depart="287.60">
        <route edges="-gneE4 -gneE1 gneE3"/>
    </vehicle>
    <vehicle id="721" depart="288.40">
        <route edges="-gneE1 gneE3"/>
    </vehicle>
    <vehicle id="726" depart="290.40">
        <route edges="-gneE12 -gneE9"/>
    </vehicle>
    <vehicle id="732" depart="292.80">
        <route edges="-gneE14 -gneE11 -gneE9 -gneE4 -gneE1 gneE2"/>
    </vehicle>
    <vehicle id="736" depart="294.40">
        <route edges="gneE1 gneE4"/>
    </vehicle>
    <vehicle id="738" depart="295.20">
        <route edges="gneE9"/>
    </vehicle>
    <vehicle id="739" depart="295.60">
        <route edges="gneE2"/>
    </vehicle>
    <vehicle id="741" depart="296.40">
        <route edges="-gneE2 gneE0"/>
    </vehicle>
    <vehicle id="742" depart="296.80">
        <route edges="-gneE4"/>
    </vehicle>
    <vehicle id="744" depart="297.60">
        <route edges="gneE1 gneE4 gneE9 gneE10 gneE13"/>
    </vehicle>
    <vehicle id="746" depart="298.40">
        <route edges="gneE3"/>
    </vehicle>
    <vehicle id="764" depart="305.60">
        <route edges="-gneE3 gneE1 gneE4 gneE9 gneE11"/>
    </vehicle>
    <vehicle id="765" depart="306.00">
        <route edges="-gneE11 -gneE9 -gneE4 -gneE1"/>
    </vehicle>
    <vehicle id="766" depart="306.40">
        <route edges="-gneE16 -gneE12 -gneE9 -gneE4 -gneE1 gneE2"/>
    </vehicle>
    <vehicle id="770" depart="308.00">
        <route edges="gneE12 gneE16"/>
    </vehicle>
    <vehicle id="771" depart="308.40">
        <route edges="gneE4 gneE9"/>
    </vehicle>
    <vehicle id="774" depart="309.60">
        <route edges="-gneE7 -gneE2 gneE0"/>
    </vehicle>
    <vehicle id="790" depart="316.00">
        <route edges="gneE9 gneE11"/>
    </vehicle>
    <vehicle id="791" depart="316.40">
        <route edges="gneE1 gneE4 gneE9"/>
    </vehicle>
    <vehicle id="797" depart="318.80">
        <route edges="-gneE6 -gneE3 gneE1 gneE4 gneE9"/>
    </vehicle>
    <vehicle id="801" depart="320.40">
        <route edges="-gneE10 gneE12 gneE16"/>
    </vehicle>
    <vehicle id="804" depart="321.60">
        <route edges="-gneE0 gneE1 gneE4"/>
    </vehicle>
    <vehicle id="805" depart="322.00">
        <route edges="-gneE13 -gneE10 gneE11 gneE14"/>
    </vehicle>
    <vehicle id="813" depart="325.20">
        <route edges="gneE1 gneE4 gneE9 gneE10 gneE13"/>
    </vehicle>
    <vehicle id="815" depart="326.00">
        <route edges="-gneE6 -gneE3 gneE1 gneE4 gneE9"/>
    </vehicle>
    <vehicle id="818" depart="327.20">
        <route edges="-gneE16 -gneE12 gneE10"/>
    </vehicle>
    <vehicle id="819" depart="327.60">
        <route edges="-gneE5 -gneE0 gneE2 gneE7"/>
    </vehicle>
    <vehicle id="827" depart="330.80">
        <route edges="gneE9 gneE11 gneE14"/>
    </vehicle>
    <vehicle id="831" depart="332.40">
        <route edges="-gneE11 -gneE9"/>
    </vehicle>
    <vehicle id="841" depart="336.40">
        <route edges="-gneE11"/>
    </vehicle>
    <vehicle id="848" depart="339.20">
        <route edges="gneE1 gneE4 gneE9"/>
    </vehicle>
    <vehicle id="851" depart="340.40">
        <route edges="-gneE12 -gneE9 -gneE4 -gneE1 gneE3 gneE6"/>
    </vehicle>
    <vehicle id="862" depart="344.80">
        <route edges="-gneE5 -gneE0 gneE1 gneE4"/>
    </vehicle>
    <vehicle id="873" depart="349.20">
        <route edges="-gneE9 -gneE4"/>
    </vehicle>
    <vehicle id="874" depart="349.60">
        <route edges="-gneE6 -gneE3"/>
    </vehicle>
    <vehicle id="877" depart="350.80">
        <route edges="-gneE0 gneE1 gneE4"/>
    </vehicle>
    <vehicle id="878" depart="351.20">
        <route edges="-gneE0"/>
    </vehicle>
    <vehicle id="882" depart="352.80">
        <route edges="-gneE12 -gneE9 -gneE4"/>
    </vehicle>
    <vehicle id="888" depart="355.20">
        <route edges="-gneE13 -gneE10 gneE11"/>
    </vehicle>
    <vehicle id="891" depart="356.40">
        <route edges="-gneE11 -gneE9 -gneE4 -gneE1 gneE3"/>
    </vehicle>
    <vehicle id="894" depart="357.60">
        <route edges="-gneE12 -gneE9 -gneE4 -gneE1 gneE2 gneE7"/>
    </vehicle>
    <vehicle id="895" depart="358.00">
        <route edges="-gneE14 -gneE11 -gneE9 -gneE4 -gneE1 gneE3"/>
    </vehicle>
    <vehicle id="902" depart="360.80">
        <route edges="-gneE5 -gneE0 gneE1 gneE4 gneE9"/>
    </vehicle>
    <vehicle id="903" depart="361.20">
        <route edges="-gneE3 gneE0"/>
    </vehicle>
    <vehicle id="907" depart="362.80">
        <route edges="-gneE5 -gneE0"/>
    </vehicle>
    <vehicle id="912" depart="364.80">
        <route edges="-gneE12 -gneE9 -gneE4"/>
    </vehicle>
    <vehicle id="913" depart="365.20">
        <route edges="-gneE7 -gneE2 gneE3"/>
    </vehicle>
    <vehicle id="916" depart="366.40">
        <route edges="-gneE2 gneE0 gneE5"/>
    </vehicle>
    <vehicle id="917" depart="366.80">
        <route edges="-gneE11 -gneE9 -gneE4"/>
    </vehicle>
    <vehicle id="921" depart="368.40">
        <route edges="-gneE13 -gneE10 gneE12"/>
    </vehicle>
    <vehicle id="924" depart="369.60">
        <route edges="-gneE9 -gneE4 -gneE1 gneE3"/>
    </vehicle>
    <vehicle id="931" depart="372.40">
        <route edges="-gneE11 -gneE9 -gneE4 -gneE1 gneE3 gneE6"/>
    </vehicle>
    <vehicle id="933" depart="373.20">
        <route edges="-gneE5 -gneE0 gneE1 gneE4 gneE9 gneE10 gneE13"/>
    </vehicle>
    <vehicle id="943" depart="377.20">
        <route edges="gneE12"/>
    </vehicle>
    <vehicle id="952" depart="380.80">
        <route edges="-gneE12 gneE10 gneE13"/>
    </vehicle>
    <vehicle id="955" depart="382.00">
        <route edges="-gneE4 -gneE1 gneE2"/>
    </vehicle>
    <vehicle id="956" depart="382.40">
        <route edges="-gneE11 -gneE9 -gneE4 -gneE1 gneE2"/>
    </vehicle>
    <vehicle id="964" depart="385.60">
        <route edges="-gneE9 -gneE4"/>
    </vehicle>
    <vehicle id="966" depart="386.40">
        <route edges="-gneE10 gneE12"/>
    </vehicle>
    <vehicle id="968" depart="387.20">
        <route edges="-gneE0"/>
    </vehicle>
    <vehicle id="976" depart="390.40">
        <route edges="-gneE11 -gneE9 -gneE4 -gneE1 gneE2"/>
    </vehicle>
    <vehicle id="986" depart="394.40">
        <route edges="-gneE3 gneE1 gneE4 gneE9 gneE10 gneE13"/>
    </vehicle>
    <vehicle id="989" depart="395.60">
        <route edges="gneE1 gneE4 gneE9 gneE10"/>
    </vehicle>
    <vehicle id="994" depart="397.60">
        <route edges="-gneE10 gneE12 gneE16"/>
    </vehicle>
    <vehicle id="995" depart="398.00">
        <route edges="gneE12 gneE16"/>
    </vehicle>
    <vehicle id="1010" depart="404.00">
        <route edges="-gneE5 -gneE0 gneE1 gneE4 gneE9"/>
    </vehicle>
    <vehicle id="1018" depart="407.20">
        <route edges="gneE4 gneE9 gneE11 gneE14"/>
    </vehicle>
    <vehicle id="1023" depart="409.20">
        <route edges="gneE11"/>
    </vehicle>
    <vehicle id="1027" depart="410.80">
        <route edges="-gneE4 -gneE1 gneE3 gneE6"/>
    </vehicle>
    <vehicle id="1028" depart="411.20">
        <route edges="-gneE11"/>
    </vehicle>
    <vehicle id="1030" depart="412.00">
        <route edges="-gneE6 -gneE3"/>
    </vehicle>
    <vehicle id="1034" depart="413.60">
        <route edges="-gneE12 -gneE9 -gneE4 -gneE1 gneE2"/>
    </vehicle>
    <vehicle id="1036" depart="414.40">
        <route edges="-gneE14 -gneE11 -gneE9 -gneE4 -gneE1 gneE2 gneE7"/>
    </vehicle>
    <vehicle id="1047" depart="418.80">
        <route edges="-gneE13 -gneE10 gneE11 gneE14"/>
    </vehicle>
    <vehicle id="1057" depart="422.80">
        <route edges="-gneE10 gneE12"/>
    </vehicle>
    <vehicle id="1061" depart="424.40">
        <route edges="-gneE12"/>
    </vehicle>
    <vehicle id="1064" depart="425.60">
        <route edges="-gneE4 -gneE1 gneE2 gneE7"/>
    </vehicle>
    <vehicle id="1065" depart="426.00">
        <route edges="gneE4 gneE9 gneE11 gneE14"/>
    </vehicle>
    <vehicle id="1081" depart="432.40">
        <route edges="-gneE12 -gneE9 -gneE4 -gneE1 gneE2 gneE7"/>
    </vehicle>
    <vehicle id="1086" depart="434.40">
        <route edges="-gneE3 gneE0 gneE5"/>
    </vehicle>
    <vehicle id="1094" depart="437.60">
        <route edges="-gneE12 -gneE9 -gneE4"/>
    </vehicle>
    <vehicle id="1099" depart="439.60">
        <route edges="gneE12"/>
    </vehicle>
    <vehicle id="1101" depart="440.40">
        <route edges="gneE4 gneE9"/>
    </vehicle>
    <vehicle id="1102" depart="440.80">
        <route edges="-gneE16 -gneE12 -gneE9 -gneE4 -gneE1"/>
    </vehicle>
    <vehicle id="1120" depart="448.00">
        <route edges="-gneE7 -gneE2 gneE0 gneE5"/>
    </vehicle>
    <vehicle id="1124" depart="449.60">
        <route edges="-gneE13 -gneE10 gneE11 gneE14"/>
    </vehicle>
    <vehicle id="1126" depart="450.40">
        <route edges="-gneE0 gneE1 gneE4 gneE9 gneE11"/>
    </vehicle>
    <vehicle id="1131" depart="452.40">
        <route edges="-gneE12 -gneE9"/>
    </vehicle>
    <vehicle id="1133" depart="453.20">
        <route edges="gneE2 gneE7"/>
    </vehicle>
    <vehicle id="1134" depart="453.60">
        <route edges="-gneE0"/>
    </vehicle>
    <vehicle id="1136" depart="454.40">