<?xml version="1.0" encoding="UTF-8"?>

<!-- generated on 2021-09-29 19:30:35 by Eclipse SUMO duarouter Version 1.9.2
<configuration xmlns:xsi="http://www.w3.org/2001/XMLSchema-instance" xsi:noNamespaceSchemaLocation="http://sumo.dlr.de/xsd/duarouterConfiguration.xsd">

    <input>
        <net-file value="/home/sonic/Desktop/nets/case03/intersection.net.xml"/>
        <route-files value="trips.trips.xml"/>
    </input>

    <output>
        <output-file value="intersection_random5.rou.xml"/>
        <alternatives-output value="intersection_random5.rou.alt.xml"/>
    </output>

    <time>
        <begin value="0"/>
        <end value="3600.0"/>
    </time>

    <report>
        <no-warnings value="true"/>
        <ignore-errors value="true"/>
        <no-step-log value="true"/>
    </report>

</configuration>
-->

<routes xmlns:xsi="http://www.w3.org/2001/XMLSchema-instance" xsi:noNamespaceSchemaLocation="http://sumo.dlr.de/xsd/routes_file.xsd">
    <vehicle id="0" depart="0.00">
        <route edges="-gneE3 gneE1 gneE4 gneE9 gneE11 gneE14"/>
    </vehicle>
    <vehicle id="5" depart="2.00">
        <route edges="-gneE10 gneE12"/>
    </vehicle>
    <vehicle id="9" depart="3.60">
        <route edges="-gneE11 -gneE9 -gneE4 -gneE1 gneE2"/>
    </vehicle>
    <vehicle id="22" depart="8.80">
        <route edges="gneE10"/>
    </vehicle>
    <vehicle id="25" depart="10.00">
        <route edges="-gneE2 gneE3 gneE6"/>
    </vehicle>
    <vehicle id="26" depart="10.40">
        <route edges="gneE1 gneE4 gneE9 gneE10 gneE13"/>
    </vehicle>
    <vehicle id="32" depart="12.80">
        <route edges="-gneE3 gneE1 gneE4"/>
    </vehicle>
    <vehicle id="33" depart="13.20">
        <route edges="-gneE5 -gneE0 gneE2"/>
    </vehicle>
    <vehicle id="35" depart="14.00">
        <route edges="-gneE11 -gneE9 -gneE4 -gneE1 gneE3"/>
    </vehicle>
    <vehicle id="45" depart="18.00">
        <route edges="-gneE11 -gneE9 -gneE4 -gneE1 gneE2 gneE7"/>
    </vehicle>
    <vehicle id="50" depart="20.00">
        <route edges="-gneE12 -gneE9 -gneE4 -gneE1 gneE3"/>
    </vehicle>
    <vehicle id="52" depart="20.80">
        <route edges="-gneE16 -gneE12 gneE10 gneE13"/>
    </vehicle>
    <vehicle id="55" depart="22.00">
        <route edges="-gneE4"/>
    </vehicle>
    <vehicle id="56" depart="22.40">
        <route edges="gneE1 gneE4"/>
    </vehicle>
    <vehicle id="62" depart="24.80">
        <route edges="gneE10"/>
    </vehicle>
    <vehicle id="63" depart="25.20">
        <route edges="-gneE5 -gneE0 gneE1 gneE4 gneE9 gneE10"/>
    </vehicle>
    <vehicle id="64" depart="25.60">
        <route edges="-gneE14 -gneE11 -gneE9 -gneE4 -gneE1 gneE2 gneE7"/>
    </vehicle>
    <vehicle id="65" depart="26.00">
        <route edges="-gneE3 gneE1 gneE4 gneE9"/>
    </vehicle>
    <vehicle id="69" depart="27.60">
        <route edges="-gneE3 gneE1 gneE4 gneE9 gneE11 gneE14"/>
    </vehicle>
    <vehicle id="77" depart="30.80">
        <route edges="-gneE5 -gneE0 gneE2 gneE7"/>
    </vehicle>
    <vehicle id="80" depart="32.00">
        <route edges="-gneE3 gneE1"/>
    </vehicle>
    <vehicle id="85" depart="34.00">
        <route edges="gneE9"/>
    </vehicle>
    <vehicle id="87" depart="34.80">
        <route edges="-gneE7 -gneE2 gneE0"/>
    </vehicle>
    <vehicle id="91" depart="36.40">
        <route edges="-gneE6 -gneE3 gneE1 gneE4 gneE9 gneE10"/>
    </vehicle>
    <vehicle id="92" depart="36.80">
        <route edges="-gneE9 -gneE4 -gneE1 gneE2 gneE7"/>
    </vehicle>
    <vehicle id="93" depart="37.20">
        <route edges="-gneE10 gneE11 gneE14"/>
    </vehicle>
    <vehicle id="100" depart="40.00">
        <route edges="-gneE11 gneE12 gneE16"/>
    </vehicle>
    <vehicle id="101" depart="40.40">
        <route edges="-gneE16 -gneE12 -gneE9"/>
    </vehicle>
    <vehicle id="103" depart="41.20">
        <route edges="gneE11"/>
    </vehicle>
    <vehicle id="108" depart="43.20">
        <route edges="-gneE6 -gneE3"/>
    </vehicle>
    <vehicle id="116" depart="46.40">
        <route edges="-gneE10"/>
    </vehicle>
    <vehicle id="119" depart="47.60">
        <route edges="gneE4 gneE9"/>
    </vehicle>
    <vehicle id="121" depart="48.40">
        <route edges="-gneE16 -gneE12 -gneE9 -gneE4 -gneE1 gneE2 gneE7"/>
    </vehicle>
    <vehicle id="126" depart="50.40">
        <route edges="-gneE4"/>
    </vehicle>
    <vehicle id="127" depart="50.80">
        <route edges="-gneE13 -gneE10 gneE11 gneE14"/>
    </vehicle>
    <vehicle id="129" depart="51.60">
        <route edges="-gneE2"/>
    </vehicle>
    <vehicle id="132" depart="52.80">
        <route edges="-gneE11 -gneE9 -gneE4 -gneE1 gneE2 gneE7"/>
    </vehicle>
    <vehicle id="138" depart="55.20">
        <route edges="gneE4 gneE9 gneE10 gneE13"/>
    </vehicle>
    <vehicle id="147" depart="58.80">
        <route edges="-gneE0"/>
    </vehicle>
    <vehicle id="149" depart="59.60">
        <route edges="-gneE12"/>
    </vehicle>
    <vehicle id="158" depart="63.20">
        <route edges="-gneE2 gneE3 gneE6"/>
    </vehicle>
    <vehicle id="161" depart="64.40">
        <route edges="-gneE3 gneE1 gneE4 gneE9 gneE11"/>
    </vehicle>
    <vehicle id="163" depart="65.20">
        <route edges="-gneE13 -gneE10 gneE12 gneE16"/>
    </vehicle>
    <vehicle id="172" depart="68.80">
        <route edges="-gneE6 -gneE3 gneE0 gneE5"/>
    </vehicle>
    <vehicle id="175" depart="70.00">
        <route edges="-gneE10 gneE12 gneE16"/>
    </vehicle>
    <vehicle id="180" depart="72.00">
        <route edges="-gneE16 -gneE12 gneE10"/>
    </vehicle>
    <vehicle id="186" depart="74.40">
        <route edges="gneE4 gneE9"/>
    </vehicle>
    <vehicle id="188" depart="75.20">
        <route edges="gneE9 gneE11"/>
    </vehicle>
    <vehicle id="191" depart="76.40">
        <route edges="-gneE9"/>
    </vehicle>
    <vehicle id="195" depart="78.00">
        <route edges="-gneE12 -gneE9 -gneE4 -gneE1 gneE3"/>
    </vehicle>
    <vehicle id="200" depart="80.00">
        <route edges="gneE1 gneE4 gneE9 gneE11 gneE14"/>
    </vehicle>
    <vehicle id="207" depart="82.80">
        <route edges="-gneE5 -gneE0"/>
    </vehicle>
    <vehicle id="209" depart="83.60">
        <route edges="-gneE6 -gneE3 gneE1 gneE4 gneE9 gneE11"/>
    </vehicle>
    <vehicle id="215" depart="86.00">
        <route edges="gneE4 gneE9 gneE11 gneE14"/>
    </vehicle>
    <vehicle id="217" depart="86.80">
        <route edges="-gneE6 -gneE3 gneE0"/>
    </vehicle>
    <vehicle id="218" depart="87.20">
        <route edges="-gneE1 gneE2 gneE7"/>
    </vehicle>
    <vehicle id="219" depart="87.60">
        <route edges="gneE0"/>
    </vehicle>
    <vehicle id="225" depart="90.00">
        <route edges="gneE9 gneE11"/>
    </vehicle>
    <vehicle id="230" depart="92.00">
        <route edges="-gneE10"/>
    </vehicle>
    <vehicle id="237" depart="94.80">
        <route edges="gneE1 gneE4 gneE9 gneE11"/>
    </vehicle>
    <vehicle id="239" depart="95.60">
        <route edges="-gneE6 -gneE3 gneE1 gneE4 gneE9 gneE11"/>
    </vehicle>
    <vehicle id="240" depart="96.00">
        <route edges="-gneE7 -gneE2 gneE3"/>
    </vehicle>
    <vehicle id="241" depart="96.40">
        <route edges="-gneE0 gneE1 gneE4 gneE9"/>
    </vehicle>
    <vehicle id="249" depart="99.60">
        <route edges="-gneE6 -gneE3 gneE1 gneE4 gneE9 gneE10 gneE13"/>
    </vehicle>
    <vehicle id="252" depart="100.80">
        <route edges="-gneE14 -gneE11"/>
    </vehicle>
    <vehicle id="258" depart="103.20">
        <route edges="-gneE16 -gneE12 -gneE9 -gneE4 -gneE1 gneE2"/>
    </vehicle>
    <vehicle id="265" depart="106.00">
        <route edges="-gneE12 -gneE9 -gneE4 -gneE1 gneE2"/>
    </vehicle>
    <vehicle id="270" depart="108.00">
        <route edges="gneE1"/>
    </vehicle>
    <vehicle id="271" depart="108.40">
        <route edges="gneE4 gneE9 gneE11 gneE14"/>
    </vehicle>
    <vehicle id="272" depart="108.80">
        <route edges="-gneE11 -gneE9 -gneE4"/>
    </vehicle>
    <vehicle id="276" depart="110.40">
        <route edges="-gneE11"/>
    </vehicle>
    <vehicle id="285" depart="114.00">
        <route edges="-gneE1 gneE2 gneE7"/>
    </vehicle>
    <vehicle id="286" depart="114.40">
        <route edges="gneE4 gneE9 gneE11"/>
    </vehicle>
    <vehicle id="287" depart="114.80">
        <route edges="-gneE3 gneE1"/>
    </vehicle>
    <vehicle id="291" depart="116.40">
        <route edges="-gneE11 -gneE9 -gneE4"/>
    </vehicle>
    <vehicle id="294" depart="117.60">
        <route edges="-gneE11 -gneE9 -gneE4 -gneE1 gneE3"/>
    </vehicle>
    <vehicle id="295" depart="118.00">
        <route edges="-gneE9 -gneE4 -gneE1 gneE3"/>
    </vehicle>
    <vehicle id="297" depart="118.80">
        <route edges="gneE1 gneE4 gneE9"/>
    </vehicle>
    <vehicle id="306" depart="122.40">
        <route edges="-gneE0 gneE2 gneE7"/>
    </vehicle>
    <vehicle id="311" depart="124.40">
        <route edges="-gneE12 -gneE9 -gneE4 -gneE1 gneE3 gneE6"/>
    </vehicle>
    <vehicle id="313" depart="125.20">
        <route edges="-gneE6 -gneE3 gneE0 gneE5"/>
    </vehicle>
    <vehicle id="318" depart="127.20">
        <route edges="gneE4 gneE9 gneE11 gneE14"/>
    </vehicle>
    <vehicle id="320" depart="128.00">
        <route edges="-gneE4"/>
    </vehicle>
    <vehicle id="325" depart="130.00">
        <route edges="gneE1"/>
    </vehicle>
    <vehicle id="327" depart="130.80">
        <route edges="-gneE14 -gneE11 -gneE9 -gneE4 -gneE1 gneE3"/>
    </vehicle>
    <vehicle id="328" depart="131.20">
        <route edges="-gneE4 -gneE1 gneE2"/>
    </vehicle>
    <vehicle id="336" depart="134.40">
        <route edges="-gneE9 -gneE4"/>
    </vehicle>
    <vehicle id="338" depart="135.20">
        <route edges="-gneE14 -gneE11 gneE12"/>
    </vehicle>
    <vehicle id="339" depart="135.60">
        <route edges="gneE9 gneE11 gneE14"/>
    </vehicle>
    <vehicle id="340" depart="136.00">
        <route edges="-gneE1 gneE2 gneE7"/>
    </vehicle>
    <vehicle id="341" depart="136.40">
        <route edges="-gneE14 -gneE11 -gneE9 -gneE4 -gneE1 gneE2"/>
    </vehicle>
    <vehicle id="347" depart="138.80">
        <route edges="gneE1 gneE4 gneE9 gneE11"/>
    </vehicle>
    <vehicle id="350" depart="140.00">
        <route edges="gneE1"/>
    </vehicle>
    <vehicle id="354" depart="141.60">
        <route edges="-gneE13 -gneE10 gneE12"/>
    </vehicle>
    <vehicle id="355" depart="142.00">
        <route edges="-gneE7 -gneE2 gneE3 gneE6"/>
    </vehicle>
    <vehicle id="356" depart="142.40">
        <route edges="-gneE14 -gneE11 -gneE9"/>
    </vehicle>
    <vehicle id="361" depart="144.40">
        <route edges="-gneE0 gneE1 gneE4 gneE9 gneE11 gneE14"/>
    </vehicle>
    <vehicle id="363" depart="145.20">
        <route edges="-gneE7 -gneE2 gneE0 gneE5"/>
    </vehicle>
    <vehicle id="367" depart="146.80">
        <route edges="-gneE3 gneE0"/>
    </vehicle>
    <vehicle id="369" depart="147.60">
        <route edges="gneE1 gneE4 gneE9 gneE11 gneE14"/>
    </vehicle>
    <vehicle id="375" depart="150.00">
        <route edges="-gneE14 -gneE11 -gneE9"/>
    </vehicle>
    <vehicle id="376" depart="150.40">
        <route edges="-gneE5 -gneE0 gneE1 gneE4"/>
    </vehicle>
    <vehicle id="380" depart="152.00">
        <route edges="-gneE16 -gneE12 -gneE9 -gneE4"/>
    </vehicle>
    <vehicle id="385" depart="154.00">
        <route edges="-gneE6 -gneE3 gneE1"/>
    </vehicle>
    <vehicle id="386" depart="154.40">
        <route edges="gneE1 gneE4 gneE9 gneE11"/>
    </vehicle>
    <vehicle id="390" depart="156.00">
        <route edges="gneE9 gneE11 gneE14"/>
    </vehicle>
    <vehicle id="392" depart="156.80">
        <route edges="gneE9 gneE11"/>
    </vehicle>
    <vehicle id="394" depart="157.60">
        <route edges="-gneE0 gneE1"/>
    </vehicle>
    <vehicle id="397" depart="158.80">
        <route edges="-gneE3 gneE1"/>
    </vehicle>
    <vehicle id="398" depart="159.20">
        <route edges="-gneE7 -gneE2 gneE3"/>
    </vehicle>
    <vehicle id="399" depart="159.60">
        <route edges="-gneE0 gneE2 gneE7"/>
    </vehicle>
    <vehicle id="404" depart="161.60">
        <route edges="-gneE4 -gneE1"/>
    </vehicle>
    <vehicle id="406" depart="162.40">
        <route edges="-gneE9"/>
    </vehicle>
    <vehicle id="409" depart="163.60">
        <route edges="gneE3 gneE6"/>
    </vehicle>
    <vehicle id="410" depart="164.00">
        <route edges="-gneE11 -gneE9 -gneE4"/>
    </vehicle>
    <vehicle id="414" depart="165.60">
        <route edges="-gneE13 -gneE10 gneE11 gneE14"/>
    </vehicle>
    <vehicle id="421" depart="168.40">
        <route edges="-gneE16 -gneE12 gneE10 gneE13"/>
    </vehicle>
    <vehicle id="422" depart="168.80">
        <route edges="-gneE11 -gneE9 -gneE4"/>
    </vehicle>
    <vehicle id="423" depart="169.20">
        <route edges="-gneE0 gneE1 gneE4 gneE9 gneE11"/>
    </vehicle>
    <vehicle id="431" depart="172.40">
        <route edges="-gneE12 gneE10"/>
    </vehicle>
    <vehicle id="433" depart="173.20">
        <route edges="-gneE9 -gneE4 -gneE1 gneE2"/>
    </vehicle>
    <vehicle id="435" depart="174.00">
        <route edges="-gneE10 gneE11 gneE14"/>
    </vehicle>
    <vehicle id="436" depart="174.40">
        <route edges="-gneE16 -gneE12 gneE10 gneE13"/>
    </vehicle>
    <vehicle id="438" depart="175.20">
        <route edges="-gneE13 -gneE10 gneE12 gneE16"/>
    </vehicle>
    <vehicle id="439" depart="175.60">
        <route edges="-gneE2 gneE0 gneE5"/>
    </vehicle>
    <vehicle id="451" depart="180.40">
        <route edges="-gneE2 gneE3"/>
    </vehicle>
    <vehicle id="453" depart="181.20">
        <route edges="-gneE11 -gneE9 -gneE4 -gneE1 gneE2"/>
    </vehicle>
    <vehicle id="460" depart="184.00">
        <route edges="-gneE16 -gneE12 -gneE9 -gneE4 -gneE1 gneE2 gneE7"/>
    </vehicle>
    <vehicle id="464" depart="185.60">
        <route edges="-gneE0 gneE1 gneE4 gneE9"/>
    </vehicle>
    <vehicle id="465" depart="186.00">
        <route edges="-gneE10 gneE12"/>
    </vehicle>
    <vehicle id="467" depart="186.80">
        <route edges="-gneE6 -gneE3 gneE1"/>
    </vehicle>
    <vehicle id="472" depart="188.80">
        <route edges="-gneE10"/>
    </vehicle>
    <vehicle id="480" depart="192.00">
        <route edges="-gneE3 gneE1 gneE4 gneE9 gneE10"/>
    </vehicle>
    <vehicle id="482" depart="192.80">
        <route edges="-gneE0 gneE1 gneE4 gneE9 gneE11 gneE14"/>
    </vehicle>
    <vehicle id="486" depart="194.40">
        <route edges="-gneE12 -gneE9 -gneE4 -gneE1 gneE2"/>
    </vehicle>
    <vehicle id="488" depart="195.20">
        <route edges="-gneE1 gneE2 gneE7"/>
    </vehicle>
    <vehicle id="500" depart="200.00">
        <route edges="gneE2"/>
    </vehicle>
    <vehicle id="504" depart="201.60">
        <route edges="-gneE3 gneE1 gneE4 gneE9 gneE11 gneE14"/>
    </vehicle>
    <vehicle id="514" depart="205.60">
        <route edges="-gneE5 -gneE0 gneE1 gneE4"/>
    </vehicle>
    <vehicle id="516" depart="206.40">
        <route edges="-gneE11 gneE12 gneE16"/>
    </vehicle>
    <vehicle id="519" depart="207.60">
        <route edges="-gneE4 -gneE1 gneE2 gneE7"/>
    </vehicle>
    <vehicle id="520" depart="208.00">
        <route edges="-gneE4 -gneE1 gneE3 gneE6"/>
    </vehicle>
    <vehicle id="521" depart="208.40">
        <route edges="-gneE0 gneE1 gneE4 gneE9 gneE11 gneE14"/>
    </vehicle>
    <vehicle id="524" depart="209.60">
        <route edges="-gneE5 -gneE0 gneE2 gneE7"/>
    </vehicle>
    <vehicle id="526" depart="210.40">
        <route edges="-gneE6 -gneE3"/>
    </vehicle>
    <vehicle id="532" depart="212.80">
        <route edges="-gneE4 -gneE1 gneE2 gneE7"/>
    </vehicle>
    <vehicle id="533" depart="213.20">
        <route edges="-gneE12 -gneE9 -gneE4 -gneE1 gneE3 gneE6"/>
    </vehicle>
    <vehicle id="541" depart="216.40">
        <route edges="gneE9 gneE11 gneE14"/>
    </vehicle>
    <vehicle id="542" depart="216.80">
        <route edges="-gneE4 -gneE1"/>
    </vehicle>
    <vehicle id="543" depart="217.20">
        <route edges="-gneE13 -gneE10 gneE11"/>
    </vehicle>
    <vehicle id="546" depart="218.40">
        <route edges="-gneE2 gneE0"/>
    </vehicle>
    <vehicle id="550" depart="220.00">
        <route edges="-gneE14 -gneE11 -gneE9 -gneE4 -gneE1 gneE2 gneE7"/>
    </vehicle>
    <vehicle id="554" depart="221.60">
        <route edges="-gneE11 -gneE9 -gneE4 -gneE1 gneE2"/>
    </vehicle>
    <vehicle id="555" depart="222.00">
        <route edges="-gneE6 -gneE3 gneE0"/>
    </vehicle>
    <vehicle id="562" depart="224.80">
        <route edges="gneE11 gneE14"/>
    </vehicle>
    <vehicle id="564" depart="225.60">
        <route edges="-gneE7 -gneE2 gneE0 gneE5"/>
    </vehicle>
    <vehicle id="566" depart="226.40">
        <route edges="gneE9"/>
    </vehicle>
    <vehicle id="578" depart="231.20">
        <route edges="-gneE5 -gneE0 gneE1 gneE4 gneE9 gneE11 gneE14"/>
    </vehicle>
    <vehicle id="583" depart="233.20">
        <route edges="-gneE12 -gneE9"/>
    </vehicle>
    <vehicle id="594" depart="237.60">
        <route edges="-gneE9 -gneE4 -gneE1"/>
    </vehicle>
    <vehicle id="601" depart="240.40">
        <route edges="-gneE16 -gneE12 -gneE9 -gneE4 -gneE1 gneE2 gneE7"/>
    </vehicle>
    <vehicle id="615" depart="246.00">
        <route edges="-gneE9 -gneE4 -gneE1 gneE2 gneE7"/>
    </vehicle>
    <vehicle id="618" depart="247.20">
        <route edges="-gneE12 -gneE9 -gneE4 -gneE1"/>
    </vehicle>
    <vehicle id="624" depart="249.60">
        <route edges="-gneE4 -gneE1"/>
    </vehicle>
    <vehicle id="626" depart="250.40">
        <route edges="-gneE4"/>
    </vehicle>
    <vehicle id="628" depart="251.20">
        <route edges="-gneE3 gneE1 gneE4"/>
    </vehicle>
    <vehicle id="633" depart="253.20">
        <route edges="-gneE11"/>
    </vehicle>
    <vehicle id="634" depart="253.60">
        <route edges="-gneE12 -gneE9 -gneE4"/>
    </vehicle>
    <vehicle id="639" depart="255.60">
        <route edges="-gneE14 -gneE11 -gneE9 -gneE4 -gneE1 gneE2"/>
    </vehicle>
    <vehicle id="645" depart="258.00">
        <route edges="-gneE9 -gneE4 -gneE1 gneE3"/>
    </vehicle>
    <vehicle id="647" depart="258.80">
        <route edges="-gneE10 gneE12 gneE16"/>
    </vehicle>
    <vehicle id="649" depart="259.60">
        <route edges="-gneE6 -gneE3 gneE1 gneE4"/>
    </vehicle>
    <vehicle id="665" depart="266.00">
        <route edges="-gneE7 -gneE2 gneE3"/>
    </vehicle>
    <vehicle id="667" depart="266.80">
        <route edges="-gneE11 -gneE9 -gneE4 -gneE1 gneE2 gneE7"/>
    </vehicle>
    <vehicle id="676" depart="270.40">
        <route edges="gneE1 gneE4"/>
    </vehicle>
    <vehicle id="686" depart="274.40">
        <route edges="-gneE0 gneE1 gneE4 gneE9 gneE10"/>
    </vehicle>
    <vehicle id="692" depart="276.80">
        <route edges="-gneE9 -gneE4 -gneE1"/>
    </vehicle>
    <vehicle id="693" depart="277.20">
        <route edges="-gneE9 -gneE4 -gneE1 gneE3"/>
    </vehicle>
    <vehicle id="698" depart="279.20">
        <route edges="-gneE9 -gneE4 -gneE1 gneE2"/>
    </vehicle>
    <vehicle id="700" depart="280.00">
        <route edges="gneE2"/>
    </vehicle>
    <vehicle id="702" depart="280.80">
        <route edges="gneE1 gneE4 gneE9 gneE11 gneE14"/>
    </vehicle>
    <vehicle id="709" depart="283.60">
        <route edges="-gneE4 -gneE1 gneE3"/>
    </vehicle>
    <vehicle id="712" depart="284.80">
        <route edges="gneE10 gneE13"/>
    </vehicle>
    <vehicle id="713" depart="285.20">
        <route edges="-gneE5 -gneE0 gneE2"/>
    </vehicle>
    <vehicle id="716" depart="286.40">
        <route edges="-gneE4 -gneE1 gneE3 gneE6"/>
    </vehicle>
    <vehicle id="720" depart="288.00">
        <route edges="-gneE0 gneE1 gneE4"/>
    </vehicle>
    <vehicle id="724" depart="289.60">
        <route edges="-gneE6 -gneE3 gneE0 gneE5"/>
    </vehicle>
    <vehicle id="726" depart="290.40">
        <route edges="-gneE11 -gneE9 -gneE4 -gneE1 gneE2 gneE7"/>
    </vehicle>
    <vehicle id="728" depart="291.20">
        <route edges="gneE11 gneE14"/>
    </vehicle>
    <vehicle id="734" depart="293.60">
        <route edges="-gneE13 -gneE10 gneE12 gneE16"/>
    </vehicle>
    <vehicle id="735" depart="294.00">
        <route edges="-gneE12 -gneE9 -gneE4 -gneE1"/>
    </vehicle>
    <vehicle id="737" depart="294.80">
        <route edges="-gneE3 gneE1 gneE4 gneE9 gneE10"/>
    </vehicle>
    <vehicle id="743" depart="297.20">
        <route edges="-gneE1 gneE2 gneE7"/>
    </vehicle>
    <vehicle id="748" depart="299.20">
        <route edges="-gneE2"/>
    </vehicle>
    <vehicle id="755" depart="302.00">
        <route edges="-gneE16 -gneE12 -gneE9 -gneE4 -gneE1 gneE2 gneE7"/>
    </vehicle>
    <vehicle id="758" depart="303.20">
        <route edges="-gneE6 -gneE3 gneE1"/>
    </vehicle>
    <vehicle id="759" depart="303.60">
        <route edges="-gneE0 gneE2 gneE7"/>
    </vehicle>
    <vehicle id="765" depart="306.00">
        <route edges="-gneE1 gneE2"/>
    </vehicle>
    <vehicle id="766" depart="306.40">
        <route edges="-gneE11 -gneE9 -gneE4 -gneE1 gneE3 gneE6"/>
    </vehicle>
    <vehicle id="773" depart="309.20">
        <route edges="gneE1 gneE4 gneE9"/>
    </vehicle>
    <vehicle id="781" depart="312.40">
        <route edges="-gneE7 -gneE2 gneE3"/>
    </vehicle>
    <vehicle id="784" depart="313.60">
        <route edges="gneE1 gneE4 gneE9 gneE11"/>
    </vehicle>
    <vehicle id="788" depart="315.20">
        <route edges="-gneE2 gneE0 gneE5"/>
    </vehicle>
    <vehicle id="792" depart="316.80">
        <route edges="-gneE2 gneE3"/>
    </vehicle>
    <vehicle id="794" depart="317.60">
        <route edges="-gneE6 -gneE3 gneE1 gneE4 gneE9 gneE10 gneE13"/>
    </vehicle>
    <vehicle id="798" depart="319.20">
        <route edges="gneE4 gneE9 gneE10 gneE13"/>
    </vehicle>
    <vehicle id="800" depart="320.00">
        <route edges="gneE2 gneE7"/>
    </vehicle>
    <vehicle id="805" depart="322.00">
        <route edges="-gneE0"/>
    </vehicle>
    <vehicle id="806" depart="322.40">
        <route edges="-gneE13 -gneE10"/>
    </vehicle>
    <vehicle id="822" depart="328.80">
        <route edges="-gneE7 -gneE2 gneE3"/>
    </vehicle>
    <vehicle id="826" depart="330.40">
        <route edges="-gneE5 -gneE0 gneE1 gneE4"/>
    </vehicle>
    <vehicle id="831" depart="332.40">
        <route edges="-gneE9 -gneE4 -gneE1 gneE2"/>
    </vehicle>
    <vehicle id="832" depart="332.80">
        <route edges="-gneE11 gneE12"/>
    </vehicle>
    <vehicle id="834" depart="333.60">
        <route edges="-gneE14 -gneE11 gneE12 gneE16"/>
    </vehicle>
    <vehicle id="837" depart="334.80">
        <route edges="-gneE11 -gneE9 -gneE4 -gneE1 gneE3"/>
    </vehicle>
    <vehicle id="839" depart="335.60">
        <route edges="-gneE3 gneE0"/>
    </vehicle>
    <vehicle id="847" depart="338.80">
        <route edges="gneE1"/>
    </vehicle>
    <vehicle id="852" depart="340.80">
        <route edges="-gneE5 -gneE0 gneE1 gneE4 gneE9 gneE11 gneE14"/>
    </vehicle>
    <vehicle id="853" depart="341.20">
        <route edges="-gneE1 gneE3"/>
    </vehicle>
    <vehicle id="860" depart="344.00">
        <route edges="-gneE9 -gneE4 -gneE1 gneE2"/>
    </vehicle>
    <vehicle id="862" depart="344.80">
        <route edges="-gneE13 -gneE10 gneE11"/>
    </vehicle>
    <vehicle id="863" depart="345.20">
        <route edges="-gneE14 -gneE11 gneE12"/>
    </vehicle>
    <vehicle id="867" depart="346.80">
        <route edges="gneE9 gneE11 gneE14"/>
    </vehicle>
    <vehicle id="870" depart="348.00">
        <route edges="-gneE11 gneE12"/>
    </vehicle>
    <vehicle id="871" depart="348.40">
        <route edges="-gneE6 -gneE3 gneE1 gneE4 gneE9 gneE10"/>
    </vehicle>
    <vehicle id="873" depart="349.20">
        <route edges="-gneE16 -gneE12 -gneE9 -gneE4 -gneE1 gneE3"/>
    </vehicle>
    <vehicle id="877" depart="350.80">
        <route edges="-gneE3 gneE1 gneE4 gneE9 gneE10"/>
    </vehicle>
    <vehicle id="880" depart="352.00">
        <route edges="-gneE16 -gneE12 -gneE9"/>
    </vehicle>
    <vehicle id="881" depart="352.40">
        <route edges="-gneE14 -gneE11 -gneE9 -gneE4 -gneE1 gneE2 gneE7"/>
    </vehicle>
    <vehicle id="884" depart="353.60">
        <route edges="-gneE3 gneE1"/>
    </vehicle>
    <vehicle id="885" depart="354.00">
        <route edges="-gneE1 gneE2"/>
    </vehicle>
    <vehicle id="886" depart="354.40">
        <route edges="-gneE14 -gneE11 -gneE9 -gneE4"/>
    </vehicle>
    <vehicle id="887" depart="354.80">
        <route edges="gneE0"/>
    </vehicle>
    <vehicle id="889" depart="355.60">
        <route edges="-gneE4 -gneE1 gneE3 gneE6"/>
    </vehicle>
    <vehicle id="894" depart="357.60">
        <route edges="-gneE16 -gneE12"/>
    </vehicle>
    <vehicle id="905" depart="362.00">
        <route edges="-gneE2 gneE3"/>
    </vehicle>
    <vehicle id="906" depart="362.40">
        <route edges="-gneE14 -gneE11"/>
    </vehicle>
    <vehicle id="909" depart="363.60">
        <route edges="-gneE5 -gneE0 gneE1 gneE4 gneE9 gneE10"/>
    </vehicle>
    <vehicle id="910" depart="364.00">
        <route edges="-gneE3 gneE1 gneE4 gneE9 gneE11"/>
    </vehicle>
    <vehicle id="911" depart="364.40">
        <route edges="-gneE0 gneE2"/>
    </vehicle>
    <vehicle id="912" depart="364.80">
        <route edges="-gneE9 -gneE4 -gneE1 gneE3 gneE6"/>
    </vehicle>
    <vehicle id="929" depart="371.60">
        <route edges="gneE1"/>
    </vehicle>
    <vehicle id="930" depart="372.00">
        <route edges="-gneE4 -gneE1 gneE2"/>
    </vehicle>
    <vehicle id="935" depart="374.00">
        <route edges="-gneE10 gneE12"/>
    </vehicle>
    <vehicle id="937" depart="374.80">
        <route edges="-gneE5 -gneE0 gneE2"/>
    </vehicle>
    <vehicle id="940" depart="376.00">
        <route edges="-gneE14 -gneE11 -gneE9 -gneE4 -gneE1 gneE3 gneE6"/>
    </vehicle>
    <vehicle id="945" depart="378.00">
        <route edges="-gneE13 -gneE10 gneE12 gneE16"/>
    </vehicle>
    <vehicle id="946" depart="378.40">
        <route edges="-gneE16 -gneE12"/>
    </vehicle>
    <vehicle id="952" depart="380.80">
        <route edges="-gneE9 -gneE4 -gneE1 gneE3"/>
    </vehicle>
    <vehicle id="960" depart="384.00">
        <route edges="gneE12"/>
    </vehicle>
    <vehicle id="969" depart="387.60">
        <route edges="-gneE13 -gneE10 gneE11 gneE14"/>
    </vehicle>
    <vehicle id="972" depart="388.80">
        <route edges="-gneE11 -gneE9 -gneE4 -gneE1 gneE3"/>
    </vehicle>
    <vehicle id="976" depart="390.40">
        <route edges="-gneE12"/>
    </vehicle>
    <vehicle id="977" depart="390.80">
        <route edges="-gneE12 -gneE9 -gneE4 -gneE1 gneE2"/>
    </vehicle>
    <vehicle id="978" depart="391.20">
        <route edges="gneE12 gneE16"/>
    </vehicle>
    <vehicle id="980" depart="392.00">
        <route edges="-gneE12 -gneE9 -gneE4 -gneE1 gneE2"/>
    </vehicle>
    <vehicle id="981" depart="392.40">
        <route edges="gneE11 gneE14"/>
    </vehicle>
    <vehicle id="989" depart="395.60">
        <route edges="gneE1 gneE4 gneE9 gneE10 gneE13"/>
    </vehicle>
    <vehicle id="998" depart="399.20">
        <route edges="-gneE9 -gneE4 -gneE1 gneE3"/>
    </vehicle>
    <vehicle id="1000" depart="400.00">
        <route edges="-gneE11 -gneE9 -gneE4 -gneE1 gneE2"/>
    </vehicle>
    <vehicle id="1002" depart="400.80">
        <route edges="-gneE0 gneE1"/>
    </vehicle>
    <vehicle id="1010" depart="404.00">
        <route edges="-gneE6 -gneE3 gneE1 gneE4 gneE9 gneE10 gneE13"/>
    </vehicle>
    <vehicle id="1014" depart="405.60">
        <route edges="-gneE16 -gneE12 -gneE9 -gneE4 -gneE1 gneE2 gneE7"/>
    </vehicle>
    <vehicle id="1015" depart="406.00">
        <route edges="-gneE14 -gneE11 -gneE9 -gneE4 -gneE1 gneE3"/>
    </vehicle>
    <vehicle id="1016" depart="406.40">
        <route edges="-gneE11 gneE12"/>
    </vehicle>
    <vehicle id="1021" depart="408.40">
        <route edges="-gneE7 -gneE2 gneE0"/>
    </vehicle>
    <vehicle id="1029" depart="411.60">
        <route edges="gneE10 gneE13"/>
    </vehicle>
    <vehicle id="1033" depart="413.20">
        <route edges="gneE10 gneE13"/>
    </vehicle>
    <vehicle id="1035" depart="414.00">
        <route edges="-gneE0 gneE1 gneE4 gneE9 gneE11"/>
    </vehicle>
    <vehicle id="1037" depart="414.80">
        <route edges="-gneE12 -gneE9 -gneE4 -gneE1 gneE3"/>
    </vehicle>
    <vehicle id="1038" depart="415.20">
        <route edges="-gneE2 gneE0 gneE5"/>
    </vehicle>
    <vehicle id="1044" depart="417.60">
        <route edges="-gneE16 -gneE12 -gneE9 -gneE4"/>
    </vehicle>
    <vehicle id="1052" depart="420.80">
        <route edges="-gneE9 -gneE4"/>
    </vehicle>
    <vehicle id="1053" depart="421.20">
        <route edges="gneE1 gneE4 gneE9 gneE10"/>
    </vehicle>
    <vehicle id="1064" depart="425.60">
        <route edges="-gneE14 -gneE11 -gneE9 -gneE4 -gneE1 gneE2"/>
    </vehicle>
    <vehicle id="1082" depart="432.80">
        <route edges="-gneE5 -gneE0"/>
    </vehicle>
    <vehicle id="1085" depart="434.00">
        <route edges="-gneE0 gneE2 gneE7"/>
    </vehicle>
    <vehicle id="1087" depart="434.80">
        <route edges="-gneE3"/>
    </vehicle>
    <vehicle id="1089" depart="435.60">
        <route edges="-gneE16 -gneE12 -gneE9 -gneE4 -gneE1"/>
    </vehicle>
    <vehicle id="1095" depart="438.00">
        <route edges="-gneE1 gneE2 gneE7"/>
    </vehicle>
    <vehicle id="1098" depart="439.20">
        <route edges="-gneE9 -gneE4"/>
    </vehicle>
    <vehicle id="1099" depart="439.60">
        <route edges="-gneE5 -gneE0 gneE1 gneE4 gneE9 gneE10 gneE13"/>
    </vehicle>
    <vehicle id="1100" depart="440.00">
        <route edges="-gneE13 -gneE10 gneE11 gneE14"/>
    </vehicle>
    <vehicle id="1108" depart="443.20">