<?xml version="1.0" encoding="UTF-8"?>

<!-- generated on 2021-09-29 19:30:34 by Eclipse SUMO duarouter Version 1.9.2
<configuration xmlns:xsi="http://www.w3.org/2001/XMLSchema-instance" xsi:noNamespaceSchemaLocation="http://sumo.dlr.de/xsd/duarouterConfiguration.xsd">

    <input>
        <net-file value="/home/sonic/Desktop/nets/case03/intersection.net.xml"/>
        <route-files value="trips.trips.xml"/>
    </input>

    <output>
        <output-file value="intersection_random4.rou.xml"/>
        <alternatives-output value="intersection_random4.rou.alt.xml"/>
    </output>

    <time>
        <begin value="0"/>
        <end value="3600.0"/>
    </time>

    <report>
        <no-warnings value="true"/>
        <ignore-errors value="true"/>
        <no-step-log value="true"/>
    </report>

</configuration>
-->

<routes xmlns:xsi="http://www.w3.org/2001/XMLSchema-instance" xsi:noNamespaceSchemaLocation="http://sumo.dlr.de/xsd/routes_file.xsd">
    <vehicle id="1" depart="0.40">
        <route edges="-gneE0 gneE1 gneE4 gneE9 gneE10 gneE13"/>
    </vehicle>
    <vehicle id="3" depart="1.20">
        <route edges="-gneE3 gneE1 gneE4 gneE9 gneE10 gneE13"/>
    </vehicle>
    <vehicle id="7" depart="2.80">
        <route edges="-gneE7 -gneE2 gneE3"/>
    </vehicle>
    <vehicle id="14" depart="5.60">
        <route edges="-gneE14 -gneE11 gneE12"/>
    </vehicle>
    <vehicle id="16" depart="6.40">
        <route edges="-gneE14 -gneE11 -gneE9 -gneE4 -gneE1"/>
    </vehicle>
    <vehicle id="18" depart="7.20">
        <route edges="-gneE3"/>
    </vehicle>
    <vehicle id="19" depart="7.60">
        <route edges="-gneE3 gneE1 gneE4"/>
    </vehicle>
    <vehicle id="23" depart="9.20">
        <route edges="-gneE3 gneE1"/>
    </vehicle>
    <vehicle id="29" depart="11.60">
        <route edges="-gneE5 -gneE0 gneE1 gneE4 gneE9"/>
    </vehicle>
    <vehicle id="34" depart="13.60">
        <route edges="gneE12"/>
    </vehicle>
    <vehicle id="39" depart="15.60">
        <route edges="-gneE0 gneE1 gneE4 gneE9 gneE10"/>
    </vehicle>
    <vehicle id="41" depart="16.40">
        <route edges="-gneE4"/>
    </vehicle>
    <vehicle id="45" depart="18.00">
        <route edges="-gneE5 -gneE0 gneE2 gneE7"/>
    </vehicle>
    <vehicle id="47" depart="18.80">
        <route edges="-gneE4 -gneE1"/>
    </vehicle>
    <vehicle id="54" depart="21.60">
        <route edges="-gneE11 -gneE9 -gneE4 -gneE1 gneE3 gneE6"/>
    </vehicle>
    <vehicle id="55" depart="22.00">
        <route edges="gneE0"/>
    </vehicle>
    <vehicle id="59" depart="23.60">
        <route edges="-gneE13 -gneE10 gneE12 gneE16"/>
    </vehicle>
    <vehicle id="68" depart="27.20">
        <route edges="-gneE6 -gneE3 gneE1 gneE4 gneE9 gneE11"/>
    </vehicle>
    <vehicle id="72" depart="28.80">
        <route edges="-gneE6 -gneE3 gneE1 gneE4 gneE9 gneE11 gneE14"/>
    </vehicle>
    <vehicle id="76" depart="30.40">
        <route edges="-gneE5 -gneE0"/>
    </vehicle>
    <vehicle id="82" depart="32.80">
        <route edges="-gneE9"/>
    </vehicle>
    <vehicle id="92" depart="36.80">
        <route edges="-gneE7 -gneE2 gneE3"/>
    </vehicle>
    <vehicle id="94" depart="37.60">
        <route edges="-gneE10 gneE11 gneE14"/>
    </vehicle>
    <vehicle id="99" depart="39.60">
        <route edges="gneE1 gneE4 gneE9 gneE11"/>
    </vehicle>
    <vehicle id="100" depart="40.00">
        <route edges="-gneE5 -gneE0"/>
    </vehicle>
    <vehicle id="106" depart="42.40">
        <route edges="-gneE16 -gneE12 -gneE9 -gneE4"/>
    </vehicle>
    <vehicle id="108" depart="43.20">
        <route edges="-gneE5 -gneE0 gneE1 gneE4 gneE9 gneE10 gneE13"/>
    </vehicle>
    <vehicle id="109" depart="43.60">
        <route edges="-gneE0 gneE1 gneE4 gneE9 gneE11 gneE14"/>
    </vehicle>
    <vehicle id="110" depart="44.00">
        <route edges="-gneE9 -gneE4 -gneE1 gneE2"/>
    </vehicle>
    <vehicle id="113" depart="45.20">
        <route edges="-gneE6 -gneE3 gneE1 gneE4 gneE9 gneE10 gneE13"/>
    </vehicle>
    <vehicle id="116" depart="46.40">
        <route edges="-gneE0 gneE1 gneE4 gneE9 gneE11"/>
    </vehicle>
    <vehicle id="117" depart="46.80">
        <route edges="gneE9 gneE11"/>
    </vehicle>
    <vehicle id="118" depart="47.20">
        <route edges="-gneE1 gneE3 gneE6"/>
    </vehicle>
    <vehicle id="123" depart="49.20">
        <route edges="gneE4 gneE9 gneE11"/>
    </vehicle>
    <vehicle id="127" depart="50.80">
        <route edges="-gneE2 gneE0 gneE5"/>
    </vehicle>
    <vehicle id="131" depart="52.40">
        <route edges="-gneE3 gneE1 gneE4 gneE9 gneE10 gneE13"/>
    </vehicle>
    <vehicle id="133" depart="53.20">
        <route edges="-gneE13 -gneE10 gneE12 gneE16"/>
    </vehicle>
    <vehicle id="139" depart="55.60">
        <route edges="-gneE2 gneE0"/>
    </vehicle>
    <vehicle id="148" depart="59.20">
        <route edges="gneE9"/>
    </vehicle>
    <vehicle id="153" depart="61.20">
        <route edges="gneE9 gneE11"/>
    </vehicle>
    <vehicle id="154" depart="61.60">
        <route edges="-gneE4 -gneE1 gneE3 gneE6"/>
    </vehicle>
    <vehicle id="157" depart="62.80">
        <route edges="-gneE0 gneE1 gneE4"/>
    </vehicle>
    <vehicle id="158" depart="63.20">
        <route edges="-gneE16 -gneE12 -gneE9 -gneE4 -gneE1 gneE3"/>
    </vehicle>
    <vehicle id="159" depart="63.60">
        <route edges="-gneE14 -gneE11 -gneE9 -gneE4 -gneE1 gneE3 gneE6"/>
    </vehicle>
    <vehicle id="160" depart="64.00">
        <route edges="-gneE14 -gneE11 -gneE9 -gneE4 -gneE1 gneE2"/>
    </vehicle>
    <vehicle id="162" depart="64.80">
        <route edges="-gneE2 gneE3"/>
    </vehicle>
    <vehicle id="165" depart="66.00">
        <route edges="-gneE5 -gneE0 gneE1 gneE4 gneE9"/>
    </vehicle>
    <vehicle id="168" depart="67.20">
        <route edges="gneE3 gneE6"/>
    </vehicle>
    <vehicle id="172" depart="68.80">
        <route edges="-gneE7 -gneE2 gneE0 gneE5"/>
    </vehicle>
    <vehicle id="177" depart="70.80">
        <route edges="gneE11 gneE14"/>
    </vehicle>
    <vehicle id="178" depart="71.20">
        <route edges="-gneE3 gneE0"/>
    </vehicle>
    <vehicle id="184" depart="73.60">
        <route edges="gneE9 gneE10"/>
    </vehicle>
    <vehicle id="186" depart="74.40">
        <route edges="gneE9 gneE11 gneE14"/>
    </vehicle>
    <vehicle id="189" depart="75.60">
        <route edges="-gneE3"/>
    </vehicle>
    <vehicle id="190" depart="76.00">
        <route edges="-gneE7 -gneE2 gneE3 gneE6"/>
    </vehicle>
    <vehicle id="195" depart="78.00">
        <route edges="-gneE12 -gneE9 -gneE4 -gneE1 gneE3 gneE6"/>
    </vehicle>
    <vehicle id="199" depart="79.60">
        <route edges="-gneE6 -gneE3 gneE1 gneE4 gneE9 gneE11 gneE14"/>
    </vehicle>
    <vehicle id="202" depart="80.80">
        <route edges="-gneE6 -gneE3"/>
    </vehicle>
    <vehicle id="204" depart="81.60">
        <route edges="-gneE3 gneE1"/>
    </vehicle>
    <vehicle id="211" depart="84.40">
        <route edges="-gneE4 -gneE1 gneE2 gneE7"/>
    </vehicle>
    <vehicle id="215" depart="86.00">
        <route edges="-gneE16 -gneE12 -gneE9 -gneE4 -gneE1 gneE3 gneE6"/>
    </vehicle>
    <vehicle id="217" depart="86.80">
        <route edges="-gneE0 gneE1"/>
    </vehicle>
    <vehicle id="219" depart="87.60">
        <route edges="-gneE3 gneE1"/>
    </vehicle>
    <vehicle id="224" depart="89.60">
        <route edges="-gneE6 -gneE3 gneE1 gneE4 gneE9 gneE11"/>
    </vehicle>
    <vehicle id="227" depart="90.80">
        <route edges="-gneE6 -gneE3 gneE0"/>
    </vehicle>
    <vehicle id="228" depart="91.20">
        <route edges="-gneE0 gneE1 gneE4 gneE9 gneE10"/>
    </vehicle>
    <vehicle id="231" depart="92.40">
        <route edges="-gneE12 -gneE9 -gneE4 -gneE1 gneE3 gneE6"/>
    </vehicle>
    <vehicle id="233" depart="93.20">
        <route edges="-gneE5 -gneE0 gneE1 gneE4 gneE9"/>
    </vehicle>
    <vehicle id="237" depart="94.80">
        <route edges="-gneE1 gneE3"/>
    </vehicle>
    <vehicle id="244" depart="97.60">
        <route edges="-gneE12 -gneE9 -gneE4 -gneE1 gneE2"/>
    </vehicle>
    <vehicle id="245" depart="98.00">
        <route edges="-gneE3 gneE1 gneE4 gneE9 gneE11"/>
    </vehicle>
    <vehicle id="252" depart="100.80">
        <route edges="-gneE0 gneE1 gneE4 gneE9 gneE10"/>
    </vehicle>
    <vehicle id="258" depart="103.20">
        <route edges="-gneE5 -gneE0 gneE2"/>
    </vehicle>
    <vehicle id="259" depart="103.60">
        <route edges="-gneE6 -gneE3 gneE1 gneE4 gneE9 gneE10"/>
    </vehicle>
    <vehicle id="260" depart="104.00">
        <route edges="-gneE16 -gneE12 -gneE9 -gneE4 -gneE1 gneE2 gneE7"/>
    </vehicle>
    <vehicle id="261" depart="104.40">
        <route edges="-gneE13 -gneE10 gneE11 gneE14"/>
    </vehicle>
    <vehicle id="263" depart="105.20">
        <route edges="-gneE13 -gneE10 gneE12 gneE16"/>
    </vehicle>
    <vehicle id="269" depart="107.60">
        <route edges="-gneE11 -gneE9 -gneE4 -gneE1 gneE2 gneE7"/>
    </vehicle>
    <vehicle id="274" depart="109.60">
        <route edges="-gneE5 -gneE0 gneE1 gneE4 gneE9"/>
    </vehicle>
    <vehicle id="278" depart="111.20">
        <route edges="-gneE3 gneE1 gneE4"/>
    </vehicle>
    <vehicle id="279" depart="111.60">
        <route edges="-gneE0 gneE2"/>
    </vehicle>
    <vehicle id="281" depart="112.40">
        <route edges="-gneE0 gneE1 gneE4 gneE9"/>
    </vehicle>
    <vehicle id="289" depart="115.60">
        <route edges="gneE2 gneE7"/>
    </vehicle>
    <vehicle id="301" depart="120.40">
        <route edges="-gneE10 gneE12 gneE16"/>
    </vehicle>
    <vehicle id="304" depart="121.60">
        <route edges="-gneE3 gneE1 gneE4 gneE9 gneE10"/>
    </vehicle>
    <vehicle id="306" depart="122.40">
        <route edges="-gneE5 -gneE0 gneE2"/>
    </vehicle>
    <vehicle id="307" depart="122.80">
        <route edges="gneE1 gneE4 gneE9"/>
    </vehicle>
    <vehicle id="310" depart="124.00">
        <route edges="gneE9 gneE11"/>
    </vehicle>
    <vehicle id="311" depart="124.40">
        <route edges="-gneE16 -gneE12 -gneE9 -gneE4 -gneE1 gneE2 gneE7"/>
    </vehicle>
    <vehicle id="312" depart="124.80">
        <route edges="-gneE16 -gneE12 -gneE9 -gneE4 -gneE1 gneE2"/>
    </vehicle>
    <vehicle id="314" depart="125.60">
        <route edges="-gneE3 gneE1 gneE4"/>
    </vehicle>
    <vehicle id="315" depart="126.00">
        <route edges="-gneE4"/>
    </vehicle>
    <vehicle id="326" depart="130.40">
        <route edges="-gneE4 -gneE1 gneE2 gneE7"/>
    </vehicle>
    <vehicle id="343" depart="137.20">
        <route edges="-gneE7 -gneE2 gneE0 gneE5"/>
    </vehicle>
    <vehicle id="344" depart="137.60">
        <route edges="-gneE1 gneE2"/>
    </vehicle>
    <vehicle id="345" depart="138.00">
        <route edges="-gneE7 -gneE2 gneE3 gneE6"/>
    </vehicle>
    <vehicle id="349" depart="139.60">
        <route edges="-gneE10 gneE12"/>
    </vehicle>
    <vehicle id="361" depart="144.40">
        <route edges="-gneE1 gneE3 gneE6"/>
    </vehicle>
    <vehicle id="362" depart="144.80">
        <route edges="-gneE14 -gneE11 -gneE9"/>
    </vehicle>
    <vehicle id="363" depart="145.20">
        <route edges="-gneE9 -gneE4"/>
    </vehicle>
    <vehicle id="365" depart="146.00">
        <route edges="-gneE9 -gneE4 -gneE1 gneE2 gneE7"/>
    </vehicle>
    <vehicle id="366" depart="146.40">
        <route edges="-gneE1 gneE3 gneE6"/>
    </vehicle>
    <vehicle id="372" depart="148.80">
        <route edges="-gneE14 -gneE11 -gneE9 -gneE4"/>
    </vehicle>
    <vehicle id="374" depart="149.60">
        <route edges="-gneE11 gneE12 gneE16"/>
    </vehicle>
    <vehicle id="377" depart="150.80">
        <route edges="-gneE7 -gneE2"/>
    </vehicle>
    <vehicle id="379" depart="151.60">
        <route edges="gneE4 gneE9 gneE10"/>
    </vehicle>
    <vehicle id="384" depart="153.60">
        <route edges="-gneE0 gneE2"/>
    </vehicle>
    <vehicle id="388" depart="155.20">
        <route edges="-gneE2 gneE0"/>
    </vehicle>
    <vehicle id="394" depart="157.60">
        <route edges="-gneE11 -gneE9"/>
    </vehicle>
    <vehicle id="396" depart="158.40">
        <route edges="-gneE6 -gneE3 gneE1 gneE4 gneE9"/>
    </vehicle>
    <vehicle id="399" depart="159.60">
        <route edges="gneE2 gneE7"/>
    </vehicle>
    <vehicle id="401" depart="160.40">
        <route edges="-gneE4 -gneE1 gneE3 gneE6"/>
    </vehicle>
    <vehicle id="408" depart="163.20">
        <route edges="-gneE6 -gneE3 gneE1"/>
    </vehicle>
    <vehicle id="409" depart="163.60">
        <route edges="-gneE5 -gneE0 gneE1 gneE4 gneE9"/>
    </vehicle>
    <vehicle id="414" depart="165.60">
        <route edges="-gneE7 -gneE2 gneE3"/>
    </vehicle>
    <vehicle id="415" depart="166.00">
        <route edges="-gneE3 gneE1 gneE4 gneE9 gneE10"/>
    </vehicle>
    <vehicle id="419" depart="167.60">
        <route edges="gneE9 gneE11 gneE14"/>
    </vehicle>
    <vehicle id="420" depart="168.00">
        <route edges="-gneE6 -gneE3 gneE1"/>
    </vehicle>
    <vehicle id="427" depart="170.80">
        <route edges="gneE4"/>
    </vehicle>
    <vehicle id="434" depart="173.60">
        <route edges="-gneE5 -gneE0 gneE1 gneE4 gneE9 gneE10"/>
    </vehicle>
    <vehicle id="436" depart="174.40">
        <route edges="-gneE14 -gneE11 -gneE9 -gneE4"/>
    </vehicle>
    <vehicle id="439" depart="175.60">
        <route edges="gneE4 gneE9 gneE10 gneE13"/>
    </vehicle>
    <vehicle id="447" depart="178.80">
        <route edges="-gneE5 -gneE0 gneE1 gneE4 gneE9 gneE10 gneE13"/>
    </vehicle>
    <vehicle id="450" depart="180.00">
        <route edges="-gneE4 -gneE1"/>
    </vehicle>
    <vehicle id="456" depart="182.40">
        <route edges="-gneE6 -gneE3 gneE1 gneE4 gneE9 gneE10 gneE13"/>
    </vehicle>
    <vehicle id="457" depart="182.80">
        <route edges="-gneE0 gneE1"/>
    </vehicle>
    <vehicle id="459" depart="183.60">
        <route edges="gneE9 gneE10 gneE13"/>
    </vehicle>
    <vehicle id="466" depart="186.40">
        <route edges="-gneE10 gneE11"/>
    </vehicle>
    <vehicle id="468" depart="187.20">
        <route edges="-gneE12 -gneE9 -gneE4 -gneE1"/>
    </vehicle>
    <vehicle id="469" depart="187.60">
        <route edges="-gneE16 -gneE12 -gneE9 -gneE4 -gneE1 gneE3 gneE6"/>
    </vehicle>
    <vehicle id="472" depart="188.80">
        <route edges="-gneE11"/>
    </vehicle>
    <vehicle id="475" depart="190.00">
        <route edges="-gneE16 -gneE12 gneE10"/>
    </vehicle>
    <vehicle id="478" depart="191.20">
        <route edges="gneE11 gneE14"/>
    </vehicle>
    <vehicle id="479" depart="191.60">
        <route edges="-gneE16 -gneE12 -gneE9 -gneE4 -gneE1 gneE2"/>
    </vehicle>
    <vehicle id="481" depart="192.40">
        <route edges="-gneE2 gneE3"/>
    </vehicle>
    <vehicle id="482" depart="192.80">
        <route edges="-gneE14 -gneE11 -gneE9 -gneE4 -gneE1"/>
    </vehicle>
    <vehicle id="485" depart="194.00">
        <route edges="gneE1 gneE4 gneE9 gneE11"/>
    </vehicle>
    <vehicle id="489" depart="195.60">
        <route edges="-gneE5 -gneE0"/>
    </vehicle>
    <vehicle id="494" depart="197.60">
        <route edges="-gneE5 -gneE0 gneE2 gneE7"/>
    </vehicle>
    <vehicle id="496" depart="198.40">
        <route edges="gneE1 gneE4 gneE9"/>
    </vehicle>
    <vehicle id="499" depart="199.60">
        <route edges="-gneE16 -gneE12 -gneE9 -gneE4 -gneE1 gneE3 gneE6"/>
    </vehicle>
    <vehicle id="503" depart="201.20">
        <route edges="-gneE7 -gneE2 gneE3"/>
    </vehicle>
    <vehicle id="508" depart="203.20">
        <route edges="-gneE14 -gneE11 -gneE9 -gneE4 -gneE1"/>
    </vehicle>
    <vehicle id="510" depart="204.00">
        <route edges="gneE1 gneE4 gneE9 gneE10 gneE13"/>
    </vehicle>
    <vehicle id="511" depart="204.40">
        <route edges="-gneE14 -gneE11 gneE12 gneE16"/>
    </vehicle>
    <vehicle id="525" depart="210.00">
        <route edges="-gneE3 gneE0"/>
    </vehicle>
    <vehicle id="530" depart="212.00">
        <route edges="-gneE6 -gneE3 gneE1 gneE4 gneE9 gneE10 gneE13"/>
    </vehicle>
    <vehicle id="533" depart="213.20">
        <route edges="gneE4 gneE9 gneE11"/>
    </vehicle>
    <vehicle id="535" depart="214.00">
        <route edges="gneE4 gneE9 gneE11 gneE14"/>
    </vehicle>
    <vehicle id="539" depart="215.60">
        <route edges="-gneE6 -gneE3 gneE1 gneE4 gneE9 gneE11 gneE14"/>
    </vehicle>
    <vehicle id="544" depart="217.60">
        <route edges="-gneE11 -gneE9 -gneE4"/>
    </vehicle>
    <vehicle id="551" depart="220.40">
        <route edges="-gneE2"/>
    </vehicle>
    <vehicle id="552" depart="220.80">
        <route edges="-gneE12 -gneE9"/>
    </vehicle>
    <vehicle id="555" depart="222.00">
        <route edges="-gneE14 -gneE11 -gneE9 -gneE4 -gneE1"/>
    </vehicle>
    <vehicle id="557" depart="222.80">
        <route edges="-gneE3 gneE0"/>
    </vehicle>
    <vehicle id="559" depart="223.60">
        <route edges="-gneE16 -gneE12 gneE10 gneE13"/>
    </vehicle>
    <vehicle id="560" depart="224.00">
        <route edges="-gneE2"/>
    </vehicle>
    <vehicle id="567" depart="226.80">
        <route edges="-gneE6 -gneE3 gneE1 gneE4 gneE9"/>
    </vehicle>
    <vehicle id="568" depart="227.20">
        <route edges="-gneE16 -gneE12 gneE10 gneE13"/>
    </vehicle>
    <vehicle id="573" depart="229.20">
        <route edges="-gneE13 -gneE10 gneE12"/>
    </vehicle>
    <vehicle id="575" depart="230.00">
        <route edges="-gneE14 -gneE11 -gneE9 -gneE4"/>
    </vehicle>
    <vehicle id="578" depart="231.20">
        <route edges="gneE9 gneE11"/>
    </vehicle>
    <vehicle id="586" depart="234.40">
        <route edges="gneE3 gneE6"/>
    </vehicle>
    <vehicle id="591" depart="236.40">
        <route edges="-gneE13 -gneE10"/>
    </vehicle>
    <vehicle id="594" depart="237.60">
        <route edges="-gneE16 -gneE12 -gneE9"/>
    </vehicle>
    <vehicle id="599" depart="239.60">
        <route edges="gneE0 gneE5"/>
    </vehicle>
    <vehicle id="600" depart="240.00">
        <route edges="-gneE0 gneE2"/>
    </vehicle>
    <vehicle id="604" depart="241.60">
        <route edges="gneE4 gneE9 gneE11 gneE14"/>
    </vehicle>
    <vehicle id="608" depart="243.20">
        <route edges="gneE1 gneE4"/>
    </vehicle>
    <vehicle id="610" depart="244.00">
        <route edges="-gneE4 -gneE1 gneE3 gneE6"/>
    </vehicle>
    <vehicle id="612" depart="244.80">
        <route edges="gneE10 gneE13"/>
    </vehicle>
    <vehicle id="617" depart="246.80">
        <route edges="-gneE3 gneE0"/>
    </vehicle>
    <vehicle id="618" depart="247.20">
        <route edges="-gneE4 -gneE1 gneE3 gneE6"/>
    </vehicle>
    <vehicle id="622" depart="248.80">
        <route edges="gneE0 gneE5"/>
    </vehicle>
    <vehicle id="623" depart="249.20">
        <route edges="-gneE6 -gneE3 gneE1 gneE4 gneE9"/>
    </vehicle>
    <vehicle id="624" depart="249.60">
        <route edges="-gneE11 -gneE9 -gneE4 -gneE1"/>
    </vehicle>
    <vehicle id="625" depart="250.00">
        <route edges="-gneE3 gneE1 gneE4 gneE9"/>
    </vehicle>
    <vehicle id="627" depart="250.80">
        <route edges="-gneE2 gneE3 gneE6"/>
    </vehicle>
    <vehicle id="628" depart="251.20">
        <route edges="-gneE0 gneE1 gneE4"/>
    </vehicle>
    <vehicle id="638" depart="255.20">
        <route edges="-gneE5 -gneE0 gneE2 gneE7"/>
    </vehicle>
    <vehicle id="640" depart="256.00">
        <route edges="-gneE16 -gneE12 gneE10"/>
    </vehicle>
    <vehicle id="642" depart="256.80">
        <route edges="-gneE0 gneE1"/>
    </vehicle>
    <vehicle id="650" depart="260.00">
        <route edges="-gneE13 -gneE10 gneE11 gneE14"/>
    </vehicle>
    <vehicle id="654" depart="261.60">
        <route edges="-gneE7 -gneE2"/>
    </vehicle>
    <vehicle id="655" depart="262.00">
        <route edges="-gneE14 -gneE11 -gneE9 -gneE4"/>
    </vehicle>
    <vehicle id="659" depart="263.60">
        <route edges="-gneE12 -gneE9 -gneE4 -gneE1"/>
    </vehicle>
    <vehicle id="664" depart="265.60">
        <route edges="-gneE5 -gneE0 gneE1 gneE4 gneE9"/>
    </vehicle>
    <vehicle id="667" depart="266.80">
        <route edges="gneE3"/>
    </vehicle>
    <vehicle id="668" depart="267.20">
        <route edges="-gneE1 gneE3 gneE6"/>
    </vehicle>
    <vehicle id="671" depart="268.40">
        <route edges="-gneE12 -gneE9 -gneE4 -gneE1 gneE2 gneE7"/>
    </vehicle>
    <vehicle id="677" depart="270.80">
        <route edges="-gneE12 -gneE9 -gneE4 -gneE1 gneE2"/>
    </vehicle>
    <vehicle id="679" depart="271.60">
        <route edges="-gneE2"/>
    </vehicle>
    <vehicle id="684" depart="273.60">
        <route edges="gneE1 gneE4 gneE9 gneE10"/>
    </vehicle>
    <vehicle id="686" depart="274.40">
        <route edges="-gneE1 gneE3 gneE6"/>
    </vehicle>
    <vehicle id="687" depart="274.80">
        <route edges="gneE1 gneE4 gneE9 gneE11 gneE14"/>
    </vehicle>
    <vehicle id="697" depart="278.80">
        <route edges="-gneE5 -gneE0"/>
    </vehicle>
    <vehicle id="699" depart="279.60">
        <route edges="-gneE0"/>
    </vehicle>
    <vehicle id="700" depart="280.00">
        <route edges="-gneE12 -gneE9 -gneE4 -gneE1 gneE3"/>
    </vehicle>
    <vehicle id="705" depart="282.00">
        <route edges="-gneE9 -gneE4 -gneE1 gneE3 gneE6"/>
    </vehicle>
    <vehicle id="708" depart="283.20">
        <route edges="-gneE12 -gneE9 -gneE4 -gneE1 gneE2 gneE7"/>
    </vehicle>
    <vehicle id="711" depart="284.40">
        <route edges="-gneE3 gneE0 gneE5"/>
    </vehicle>
    <vehicle id="714" depart="285.60">
        <route edges="-gneE12 -gneE9 -gneE4 -gneE1 gneE2"/>
    </vehicle>
    <vehicle id="719" depart="287.60">
        <route edges="-gneE5 -gneE0 gneE1"/>
    </vehicle>
    <vehicle id="722" depart="288.80">
        <route edges="-gneE5 -gneE0 gneE1"/>
    </vehicle>
    <vehicle id="731" depart="292.40">
        <route edges="-gneE9 -gneE4"/>
    </vehicle>
    <vehicle id="736" depart="294.40">
        <route edges="-gneE0 gneE2 gneE7"/>
    </vehicle>
    <vehicle id="740" depart="296.00">
        <route edges="-gneE16 -gneE12 -gneE9"/>
    </vehicle>
    <vehicle id="741" depart="296.40">
        <route edges="gneE0"/>
    </vehicle>
    <vehicle id="744" depart="297.60">
        <route edges="gneE11 gneE14"/>
    </vehicle>
    <vehicle id="745" depart="298.00">
        <route edges="-gneE10 gneE11"/>
    </vehicle>
    <vehicle id="747" depart="298.80">
        <route edges="-gneE11 -gneE9 -gneE4 -gneE1"/>
    </vehicle>
    <vehicle id="748" depart="299.20">
        <route edges="-gneE4 -gneE1 gneE3"/>
    </vehicle>
    <vehicle id="754" depart="301.60">
        <route edges="gneE1 gneE4 gneE9 gneE10 gneE13"/>
    </vehicle>
    <vehicle id="762" depart="304.80">
        <route edges="-gneE11 -gneE9 -gneE4 -gneE1 gneE3"/>
    </vehicle>
    <vehicle id="763" depart="305.20">
        <route edges="-gneE11 gneE12"/>
    </vehicle>
    <vehicle id="767" depart="306.80">
        <route edges="-gneE16 -gneE12 -gneE9 -gneE4 -gneE1 gneE3 gneE6"/>
    </vehicle>
    <vehicle id="768" depart="307.20">
        <route edges="-gneE11 -gneE9 -gneE4 -gneE1"/>
    </vehicle>
    <vehicle id="771" depart="308.40">
        <route edges="-gneE11 gneE12"/>
    </vehicle>
    <vehicle id="781" depart="312.40">
        <route edges="-gneE1 gneE2"/>
    </vehicle>
    <vehicle id="782" depart="312.80">
        <route edges="-gneE7 -gneE2 gneE0"/>
    </vehicle>
    <vehicle id="784" depart="313.60">
        <route edges="-gneE3 gneE0 gneE5"/>
    </vehicle>
    <vehicle id="786" depart="314.40">
        <route edges="-gneE2 gneE3"/>
    </vehicle>
    <vehicle id="789" depart="315.60">
        <route edges="gneE10"/>
    </vehicle>
    <vehicle id="793" depart="317.20">
        <route edges="-gneE14 -gneE11"/>
    </vehicle>
    <vehicle id="795" depart="318.00">
        <route edges="-gneE1"/>
    </vehicle>
    <vehicle id="798" depart="319.20">
        <route edges="-gneE10 gneE11 gneE14"/>
    </vehicle>
    <vehicle id="801" depart="320.40">
        <route edges="-gneE5 -gneE0 gneE1 gneE4 gneE9 gneE11 gneE14"/>
    </vehicle>
    <vehicle id="804" depart="321.60">
        <route edges="-gneE9 -gneE4 -gneE1"/>
    </vehicle>
    <vehicle id="808" depart="323.20">
        <route edges="-gneE0 gneE1 gneE4 gneE9 gneE10 gneE13"/>
    </vehicle>
    <vehicle id="818" depart="327.20">
        <route edges="-gneE16 -gneE12"/>
    </vehicle>
    <vehicle id="821" depart="328.40">
        <route edges="gneE1"/>
    </vehicle>
    <vehicle id="822" depart="328.80">
        <route edges="-gneE12 -gneE9 -gneE4 -gneE1 gneE3"/>
    </vehicle>
    <vehicle id="825" depart="330.00">
        <route edges="-gneE5 -gneE0 gneE1 gneE4"/>
    </vehicle>
    <vehicle id="826" depart="330.40">
        <route edges="-gneE16 -gneE12 -gneE9 -gneE4 -gneE1 gneE2 gneE7"/>
    </vehicle>
    <vehicle id="827" depart="330.80">
        <route edges="-gneE3 gneE1 gneE4 gneE9 gneE10"/>
    </vehicle>
    <vehicle id="831" depart="332.40">
        <route edges="-gneE16 -gneE12 -gneE9 -gneE4 -gneE1 gneE3 gneE6"/>
    </vehicle>
    <vehicle id="835" depart="334.00">
        <route edges="-gneE4 -gneE1"/>
    </vehicle>
    <vehicle id="838" depart="335.20">
        <route edges="-gneE6 -gneE3 gneE1"/>
    </vehicle>
    <vehicle id="848" depart="339.20">
        <route edges="-gneE9 -gneE4 -gneE1 gneE3 gneE6"/>
    </vehicle>
    <vehicle id="857" depart="342.80">
        <route edges="-gneE12 -gneE9 -gneE4 -gneE1 gneE3 gneE6"/>
    </vehicle>
    <vehicle id="860" depart="344.00">
        <route edges="-gneE16 -gneE12 -gneE9 -gneE4"/>
    </vehicle>
    <vehicle id="865" depart="346.00">
        <route edges="gneE11 gneE14"/>
    </vehicle>
    <vehicle id="867" depart="346.80">
        <route edges="-gneE11 -gneE9 -gneE4 -gneE1 gneE3"/>
    </vehicle>
    <vehicle id="868" depart="347.20">
        <route edges="-gneE3 gneE1 gneE4"/>
    </vehicle>
    <vehicle id="870" depart="348.00">
        <route edges="-gneE5 -gneE0 gneE1 gneE4"/>
    </vehicle>
    <vehicle id="875" depart="350.00">
        <route edges="-gneE1"/>
    </vehicle>
    <vehicle id="882" depart="352.80">
        <route edges="-gneE11 gneE12"/>
    </vehicle>
    <vehicle id="883" depart="353.20">
        <route edges="-gneE12 -gneE9"/>
    </vehicle>
    <vehicle id="884" depart="353.60">
        <route edges="-gneE12"/>
    </vehicle>
    <vehicle id="892" depart="356.80">
        <route edges="-gneE4 -gneE1 gneE3"/>
    </vehicle>
    <vehicle id="899" depart="359.60">
        <route edges="gneE12 gneE16"/>
    </vehicle>
    <vehicle id="900" depart="360.00">
        <route edges="-gneE3 gneE1 gneE4 gneE9 gneE11"/>
    </vehicle>
    <vehicle id="901" depart="360.40">
        <route edges="-gneE6 -gneE3 gneE1 gneE4 gneE9 gneE10 gneE13"/>
    </vehicle>
    <vehicle id="903" depart="361.20">
        <route edges="-gneE10"/>
    </vehicle>
    <vehicle id="904" depart="361.60">
        <route edges="-gneE5 -gneE0 gneE2 gneE7"/>
    </vehicle>
    <vehicle id="906" depart="362.40">
        <route edges="gneE0 gneE5"/>
    </vehicle>
    <vehicle id="907" depart="362.80">
        <route edges="-gneE9"/>
    </vehicle>
    <vehicle id="910" depart="364.00">
        <route edges="-gneE3 gneE1"/>
    </vehicle>
    <vehicle id="911" depart="364.40">
        <route edges="-gneE14 -gneE11 -gneE9 -gneE4 -gneE1 gneE3 gneE6"/>
    </vehicle>
    <vehicle id="913" depart="365.20">
        <route edges="-gneE11 -gneE9 -gneE4 -gneE1 gneE3 gneE6"/>
    </vehicle>
    <vehicle id="915" depart="366.00">
        <route edges="-gneE7 -gneE2 gneE3 gneE6"/>
    </vehicle>
    <vehicle id="918" depart="367.20">
        <route edges="-gneE0 gneE2"/>
    </vehicle>
    <vehicle id="920" depart="368.00">
        <route edges="-gneE6 -gneE3 gneE1 gneE4 gneE9 gneE10 gneE13"/>
    </vehicle>
    <vehicle id="922" depart="368.80">
        <route edges="-gneE0 gneE1"/>
    </vehicle>
    <vehicle id="923" depart="369.20">
        <route edges="-gneE5 -gneE0 gneE1 gneE4 gneE9 gneE10 gneE13"/>
    </vehicle>
    <vehicle id="933" depart="373.20">
        <route edges="gneE1"/>
    </vehicle>
    <vehicle id="942" depart="376.80">
        <route edges="gneE12 gneE16"/>
    </vehicle>
    <vehicle id="950" depart="380.00">
        <route edges="-gneE7 -gneE2 gneE0"/>
    </vehicle>
    <vehicle id="955" depart="382.00">
        <route edges="-gneE12"/>
    </vehicle>
    <vehicle id="959" depart="383.60">
        <route edges="gneE10 gneE13"/>
    </vehicle>
    <vehicle id="964" depart="385.60">
        <route edges="-gneE14 -gneE11 -gneE9"/>
    </vehicle>
    <vehicle id="965" depart="386.00">
        <route edges="-gneE9 -gneE4 -gneE1 gneE3"/>
    </vehicle>
    <vehicle id="969" depart="387.60">
        <route edges="-gneE14 -gneE11 -gneE9 -gneE4 -gneE1"/>
    </vehicle>
    <vehicle id="970" depart="388.00">
        <route edges="-gneE0 gneE1 gneE4 gneE9"/>
    </vehicle>
    <vehicle id="981" depart="392.40">
        <route edges="-gneE0"/>
    </vehicle>
    <vehicle id="988" depart="395.20">
        <route edges="-gneE5 -gneE0 gneE2 gneE7"/>
    </vehicle>
    <vehicle id="990" depart="396.00">
        <route edges="-gneE6 -gneE3 gneE1 gneE4 gneE9"/>
    </vehicle>
    <vehicle id="991" depart="396.40">
        <route edges="-gneE9 -gneE4 -gneE1 gneE2"/>
    </vehicle>
    <vehicle id="996" depart="398.40">
        <route edges="-gneE2 gneE0"/>
    </vehicle>
    <vehicle id="997" depart="398.80">
        <route edges="-gneE4 -gneE1 gneE2 gneE7"/>
    </vehicle>
    <vehicle id="1005" depart="402.00">
        <route edges="-gneE3 gneE1 gneE4 gneE9 gneE11 gneE14"/>
    </vehicle>
    <vehicle id="1007" depart="402.80">
        <route edges="gneE4 gneE9 gneE10 gneE13"/>
    </vehicle>
    <vehicle id="1008" depart="403.20">
        <route edges="-gneE0 gneE1"/>