<?xml version="1.0" encoding="UTF-8"?>

<!-- generated on 2021-09-29 19:30:43 by Eclipse SUMO duarouter Version 1.9.2
<configuration xmlns:xsi="http://www.w3.org/2001/XMLSchema-instance" xsi:noNamespaceSchemaLocation="http://sumo.dlr.de/xsd/duarouterConfiguration.xsd">

    <input>
        <net-file value="/home/sonic/Desktop/nets/case03/intersection.net.xml"/>
        <route-files value="trips.trips.xml"/>
    </input>

    <output>
        <output-file value="intersection_random21.rou.xml"/>
        <alternatives-output value="intersection_random21.rou.alt.xml"/>
    </output>

    <time>
        <begin value="0"/>
        <end value="3600.0"/>
    </time>

    <report>
        <no-warnings value="true"/>
        <ignore-errors value="true"/>
        <no-step-log value="true"/>
    </report>

</configuration>
-->

<routes xmlns:xsi="http://www.w3.org/2001/XMLSchema-instance" xsi:noNamespaceSchemaLocation="http://sumo.dlr.de/xsd/routes_file.xsd">
    <vehicle id="3" depart="1.20">
        <route edges="-gneE12 -gneE9 -gneE4 -gneE1 gneE2"/>
    </vehicle>
    <vehicle id="4" depart="1.60">
        <route edges="-gneE3 gneE1 gneE4 gneE9 gneE11 gneE14"/>
    </vehicle>
    <vehicle id="9" depart="3.60">
        <route edges="gneE2"/>
    </vehicle>
    <vehicle id="15" depart="6.00">
        <route edges="-gneE12 -gneE9 -gneE4 -gneE1 gneE3"/>
    </vehicle>
    <vehicle id="17" depart="6.80">
        <route edges="-gneE5 -gneE0 gneE1 gneE4 gneE9 gneE11 gneE14"/>
    </vehicle>
    <vehicle id="19" depart="7.60">
        <route edges="-gneE14 -gneE11 -gneE9 -gneE4 -gneE1 gneE3 gneE6"/>
    </vehicle>
    <vehicle id="26" depart="10.40">
        <route edges="-gneE2 gneE3"/>
    </vehicle>
    <vehicle id="36" depart="14.40">
        <route edges="-gneE3 gneE0 gneE5"/>
    </vehicle>
    <vehicle id="38" depart="15.20">
        <route edges="-gneE5 -gneE0 gneE1 gneE4 gneE9"/>
    </vehicle>
    <vehicle id="39" depart="15.60">
        <route edges="-gneE4 -gneE1 gneE3 gneE6"/>
    </vehicle>
    <vehicle id="41" depart="16.40">
        <route edges="gneE9 gneE10 gneE13"/>
    </vehicle>
    <vehicle id="49" depart="19.60">
        <route edges="-gneE10 gneE11"/>
    </vehicle>
    <vehicle id="51" depart="20.40">
        <route edges="-gneE10 gneE12"/>
    </vehicle>
    <vehicle id="52" depart="20.80">
        <route edges="-gneE0 gneE1 gneE4 gneE9"/>
    </vehicle>
    <vehicle id="55" depart="22.00">
        <route edges="-gneE3 gneE1 gneE4 gneE9 gneE11"/>
    </vehicle>
    <vehicle id="56" depart="22.40">
        <route edges="-gneE16 -gneE12 -gneE9 -gneE4 -gneE1"/>
    </vehicle>
    <vehicle id="61" depart="24.40">
        <route edges="gneE1 gneE4"/>
    </vehicle>
    <vehicle id="66" depart="26.40">
        <route edges="-gneE5 -gneE0 gneE1 gneE4 gneE9 gneE10 gneE13"/>
    </vehicle>
    <vehicle id="67" depart="26.80">
        <route edges="-gneE16 -gneE12 -gneE9 -gneE4 -gneE1 gneE3 gneE6"/>
    </vehicle>
    <vehicle id="69" depart="27.60">
        <route edges="-gneE10 gneE12"/>
    </vehicle>
    <vehicle id="71" depart="28.40">
        <route edges="-gneE2 gneE3 gneE6"/>
    </vehicle>
    <vehicle id="72" depart="28.80">
        <route edges="-gneE0 gneE1"/>
    </vehicle>
    <vehicle id="74" depart="29.60">
        <route edges="-gneE11 -gneE9 -gneE4 -gneE1 gneE3"/>
    </vehicle>
    <vehicle id="85" depart="34.00">
        <route edges="-gneE16 -gneE12"/>
    </vehicle>
    <vehicle id="87" depart="34.80">
        <route edges="-gneE10 gneE11"/>
    </vehicle>
    <vehicle id="88" depart="35.20">
        <route edges="-gneE6 -gneE3 gneE1 gneE4 gneE9 gneE11"/>
    </vehicle>
    <vehicle id="104" depart="41.60">
        <route edges="-gneE14 -gneE11 -gneE9"/>
    </vehicle>
    <vehicle id="110" depart="44.00">
        <route edges="-gneE3 gneE1 gneE4 gneE9 gneE10"/>
    </vehicle>
    <vehicle id="112" depart="44.80">
        <route edges="gneE9 gneE11"/>
    </vehicle>
    <vehicle id="115" depart="46.00">
        <route edges="-gneE14 -gneE11 -gneE9 -gneE4 -gneE1 gneE2"/>
    </vehicle>
    <vehicle id="120" depart="48.00">
        <route edges="-gneE2 gneE3 gneE6"/>
    </vehicle>
    <vehicle id="121" depart="48.40">
        <route edges="-gneE5 -gneE0 gneE1 gneE4 gneE9 gneE10"/>
    </vehicle>
    <vehicle id="122" depart="48.80">
        <route edges="gneE1 gneE4 gneE9"/>
    </vehicle>
    <vehicle id="125" depart="50.00">
        <route edges="-gneE16 -gneE12 gneE10"/>
    </vehicle>
    <vehicle id="127" depart="50.80">
        <route edges="gneE2 gneE7"/>
    </vehicle>
    <vehicle id="133" depart="53.20">
        <route edges="-gneE4"/>
    </vehicle>
    <vehicle id="134" depart="53.60">
        <route edges="-gneE16 -gneE12 -gneE9 -gneE4 -gneE1 gneE3"/>
    </vehicle>
    <vehicle id="138" depart="55.20">
        <route edges="gneE12"/>
    </vehicle>
    <vehicle id="139" depart="55.60">
        <route edges="gneE3 gneE6"/>
    </vehicle>
    <vehicle id="141" depart="56.40">
        <route edges="-gneE3 gneE1 gneE4 gneE9 gneE11 gneE14"/>
    </vehicle>
    <vehicle id="143" depart="57.20">
        <route edges="-gneE12 -gneE9 -gneE4 -gneE1 gneE3"/>
    </vehicle>
    <vehicle id="144" depart="57.60">
        <route edges="gneE2"/>
    </vehicle>
    <vehicle id="146" depart="58.40">
        <route edges="-gneE12 -gneE9 -gneE4"/>
    </vehicle>
    <vehicle id="148" depart="59.20">
        <route edges="gneE4"/>
    </vehicle>
    <vehicle id="151" depart="60.40">
        <route edges="-gneE13 -gneE10 gneE11 gneE14"/>
    </vehicle>
    <vehicle id="158" depart="63.20">
        <route edges="-gneE11 gneE12 gneE16"/>
    </vehicle>
    <vehicle id="159" depart="63.60">
        <route edges="-gneE6 -gneE3 gneE0"/>
    </vehicle>
    <vehicle id="166" depart="66.40">
        <route edges="-gneE2 gneE3 gneE6"/>
    </vehicle>
    <vehicle id="167" depart="66.80">
        <route edges="-gneE9 -gneE4"/>
    </vehicle>
    <vehicle id="171" depart="68.40">
        <route edges="gneE9 gneE11"/>
    </vehicle>
    <vehicle id="174" depart="69.60">
        <route edges="gneE4 gneE9"/>
    </vehicle>
    <vehicle id="177" depart="70.80">
        <route edges="-gneE16 -gneE12"/>
    </vehicle>
    <vehicle id="178" depart="71.20">
        <route edges="-gneE13 -gneE10 gneE11 gneE14"/>
    </vehicle>
    <vehicle id="179" depart="71.60">
        <route edges="-gneE11 gneE12 gneE16"/>
    </vehicle>
    <vehicle id="183" depart="73.20">
        <route edges="-gneE11 -gneE9 -gneE4 -gneE1 gneE2 gneE7"/>
    </vehicle>
    <vehicle id="191" depart="76.40">
        <route edges="-gneE7 -gneE2 gneE3 gneE6"/>
    </vehicle>
    <vehicle id="196" depart="78.40">
        <route edges="-gneE16 -gneE12 -gneE9 -gneE4 -gneE1 gneE3"/>
    </vehicle>
    <vehicle id="199" depart="79.60">
        <route edges="-gneE14 -gneE11 -gneE9 -gneE4 -gneE1"/>
    </vehicle>
    <vehicle id="206" depart="82.40">
        <route edges="-gneE2 gneE0"/>
    </vehicle>
    <vehicle id="207" depart="82.80">
        <route edges="-gneE16 -gneE12 -gneE9 -gneE4 -gneE1 gneE3 gneE6"/>
    </vehicle>
    <vehicle id="213" depart="85.20">
        <route edges="-gneE2 gneE3 gneE6"/>
    </vehicle>
    <vehicle id="218" depart="87.20">
        <route edges="-gneE9 -gneE4 -gneE1"/>
    </vehicle>
    <vehicle id="220" depart="88.00">
        <route edges="-gneE9 -gneE4"/>
    </vehicle>
    <vehicle id="225" depart="90.00">
        <route edges="-gneE16 -gneE12 -gneE9 -gneE4 -gneE1 gneE3"/>
    </vehicle>
    <vehicle id="227" depart="90.80">
        <route edges="-gneE12 -gneE9"/>
    </vehicle>
    <vehicle id="233" depart="93.20">
        <route edges="-gneE9 -gneE4 -gneE1 gneE2"/>
    </vehicle>
    <vehicle id="235" depart="94.00">
        <route edges="-gneE3"/>
    </vehicle>
    <vehicle id="239" depart="95.60">
        <route edges="gneE0"/>
    </vehicle>
    <vehicle id="255" depart="102.00">
        <route edges="-gneE0 gneE1 gneE4 gneE9 gneE11"/>
    </vehicle>
    <vehicle id="256" depart="102.40">
        <route edges="-gneE5 -gneE0 gneE1 gneE4 gneE9 gneE11 gneE14"/>
    </vehicle>
    <vehicle id="258" depart="103.20">
        <route edges="-gneE7 -gneE2 gneE3 gneE6"/>
    </vehicle>
    <vehicle id="260" depart="104.00">
        <route edges="gneE9 gneE10"/>
    </vehicle>
    <vehicle id="265" depart="106.00">
        <route edges="-gneE10 gneE12 gneE16"/>
    </vehicle>
    <vehicle id="266" depart="106.40">
        <route edges="-gneE14 -gneE11 -gneE9 -gneE4 -gneE1 gneE2"/>
    </vehicle>
    <vehicle id="268" depart="107.20">
        <route edges="-gneE1"/>
    </vehicle>
    <vehicle id="269" depart="107.60">
        <route edges="-gneE16 -gneE12 -gneE9"/>
    </vehicle>
    <vehicle id="272" depart="108.80">
        <route edges="-gneE7 -gneE2 gneE0"/>
    </vehicle>
    <vehicle id="276" depart="110.40">
        <route edges="gneE0"/>
    </vehicle>
    <vehicle id="277" depart="110.80">
        <route edges="-gneE0"/>
    </vehicle>
    <vehicle id="283" depart="113.20">
        <route edges="-gneE3 gneE0"/>
    </vehicle>
    <vehicle id="285" depart="114.00">
        <route edges="-gneE6 -gneE3 gneE1 gneE4 gneE9"/>
    </vehicle>
    <vehicle id="294" depart="117.60">
        <route edges="-gneE10"/>
    </vehicle>
    <vehicle id="302" depart="120.80">
        <route edges="-gneE13 -gneE10"/>
    </vehicle>
    <vehicle id="304" depart="121.60">
        <route edges="gneE2 gneE7"/>
    </vehicle>
    <vehicle id="310" depart="124.00">
        <route edges="-gneE12 gneE10"/>
    </vehicle>
    <vehicle id="315" depart="126.00">
        <route edges="-gneE12 -gneE9 -gneE4 -gneE1 gneE2 gneE7"/>
    </vehicle>
    <vehicle id="320" depart="128.00">
        <route edges="-gneE7 -gneE2 gneE3"/>
    </vehicle>
    <vehicle id="324" depart="129.60">
        <route edges="-gneE1 gneE2"/>
    </vehicle>
    <vehicle id="326" depart="130.40">
        <route edges="-gneE4"/>
    </vehicle>
    <vehicle id="329" depart="131.60">
        <route edges="-gneE5 -gneE0 gneE1 gneE4 gneE9 gneE11 gneE14"/>
    </vehicle>
    <vehicle id="346" depart="138.40">
        <route edges="gneE9 gneE11"/>
    </vehicle>
    <vehicle id="355" depart="142.00">
        <route edges="-gneE10 gneE11 gneE14"/>
    </vehicle>
    <vehicle id="361" depart="144.40">
        <route edges="-gneE0 gneE2 gneE7"/>
    </vehicle>
    <vehicle id="363" depart="145.20">
        <route edges="-gneE1 gneE3 gneE6"/>
    </vehicle>
    <vehicle id="371" depart="148.40">
        <route edges="-gneE2 gneE0 gneE5"/>
    </vehicle>
    <vehicle id="373" depart="149.20">
        <route edges="-gneE14 -gneE11 -gneE9 -gneE4 -gneE1 gneE3"/>
    </vehicle>
    <vehicle id="378" depart="151.20">
        <route edges="-gneE3 gneE1"/>
    </vehicle>
    <vehicle id="384" depart="153.60">
        <route edges="-gneE5 -gneE0 gneE1 gneE4 gneE9"/>
    </vehicle>
    <vehicle id="385" depart="154.00">
        <route edges="-gneE0 gneE1"/>
    </vehicle>
    <vehicle id="386" depart="154.40">
        <route edges="-gneE12 -gneE9 -gneE4 -gneE1 gneE3"/>
    </vehicle>
    <vehicle id="392" depart="156.80">
        <route edges="-gneE13 -gneE10 gneE12"/>
    </vehicle>
    <vehicle id="393" depart="157.20">
        <route edges="gneE11 gneE14"/>
    </vehicle>
    <vehicle id="399" depart="159.60">
        <route edges="gneE4 gneE9 gneE10 gneE13"/>
    </vehicle>
    <vehicle id="400" depart="160.00">
        <route edges="gneE3 gneE6"/>
    </vehicle>
    <vehicle id="402" depart="160.80">
        <route edges="gneE12"/>
    </vehicle>
    <vehicle id="404" depart="161.60">
        <route edges="-gneE16 -gneE12 -gneE9 -gneE4 -gneE1 gneE2"/>
    </vehicle>
    <vehicle id="408" depart="163.20">
        <route edges="gneE9 gneE11 gneE14"/>
    </vehicle>
    <vehicle id="413" depart="165.20">
        <route edges="-gneE1 gneE3 gneE6"/>
    </vehicle>
    <vehicle id="418" depart="167.20">
        <route edges="gneE4"/>
    </vehicle>
    <vehicle id="419" depart="167.60">
        <route edges="-gneE0 gneE1 gneE4"/>
    </vehicle>
    <vehicle id="420" depart="168.00">
        <route edges="-gneE10 gneE12 gneE16"/>
    </vehicle>
    <vehicle id="421" depart="168.40">
        <route edges="-gneE16 -gneE12 gneE10"/>
    </vehicle>
    <vehicle id="428" depart="171.20">
        <route edges="gneE11"/>
    </vehicle>
    <vehicle id="429" depart="171.60">
        <route edges="-gneE14 -gneE11 -gneE9"/>
    </vehicle>
    <vehicle id="431" depart="172.40">
        <route edges="-gneE14 -gneE11 -gneE9 -gneE4 -gneE1 gneE2"/>
    </vehicle>
    <vehicle id="435" depart="174.00">
        <route edges="-gneE16 -gneE12 -gneE9 -gneE4 -gneE1 gneE3 gneE6"/>
    </vehicle>
    <vehicle id="437" depart="174.80">
        <route edges="-gneE0 gneE1"/>
    </vehicle>
    <vehicle id="440" depart="176.00">
        <route edges="-gneE6 -gneE3 gneE0"/>
    </vehicle>
    <vehicle id="441" depart="176.40">
        <route edges="-gneE13 -gneE10 gneE11 gneE14"/>
    </vehicle>
    <vehicle id="447" depart="178.80">
        <route edges="-gneE5 -gneE0 gneE1 gneE4"/>
    </vehicle>
    <vehicle id="450" depart="180.00">
        <route edges="-gneE11 -gneE9 -gneE4 -gneE1"/>
    </vehicle>
    <vehicle id="453" depart="181.20">
        <route edges="-gneE10 gneE12"/>
    </vehicle>
    <vehicle id="464" depart="185.60">
        <route edges="gneE4"/>
    </vehicle>
    <vehicle id="473" depart="189.20">
        <route edges="gneE2 gneE7"/>
    </vehicle>
    <vehicle id="476" depart="190.40">
        <route edges="-gneE11 -gneE9"/>
    </vehicle>
    <vehicle id="492" depart="196.80">
        <route edges="gneE1"/>
    </vehicle>
    <vehicle id="496" depart="198.40">
        <route edges="-gneE4"/>
    </vehicle>
    <vehicle id="497" depart="198.80">
        <route edges="gneE4 gneE9"/>
    </vehicle>
    <vehicle id="506" depart="202.40">
        <route edges="-gneE11 -gneE9 -gneE4 -gneE1"/>
    </vehicle>
    <vehicle id="510" depart="204.00">
        <route edges="-gneE16 -gneE12 -gneE9 -gneE4 -gneE1 gneE2 gneE7"/>
    </vehicle>
    <vehicle id="513" depart="205.20">
        <route edges="gneE4 gneE9 gneE10"/>
    </vehicle>
    <vehicle id="522" depart="208.80">
        <route edges="-gneE13 -gneE10"/>
    </vehicle>
    <vehicle id="523" depart="209.20">
        <route edges="-gneE16 -gneE12 gneE10"/>
    </vehicle>
    <vehicle id="530" depart="212.00">
        <route edges="gneE3 gneE6"/>
    </vehicle>
    <vehicle id="533" depart="213.20">
        <route edges="-gneE3 gneE1 gneE4 gneE9 gneE11 gneE14"/>
    </vehicle>
    <vehicle id="535" depart="214.00">
        <route edges="gneE3"/>
    </vehicle>
    <vehicle id="536" depart="214.40">
        <route edges="gneE4 gneE9 gneE10"/>
    </vehicle>
    <vehicle id="541" depart="216.40">
        <route edges="-gneE2"/>
    </vehicle>
    <vehicle id="545" depart="218.00">
        <route edges="gneE10 gneE13"/>
    </vehicle>
    <vehicle id="546" depart="218.40">
        <route edges="-gneE5 -gneE0"/>
    </vehicle>
    <vehicle id="554" depart="221.60">
        <route edges="-gneE3 gneE0 gneE5"/>
    </vehicle>
    <vehicle id="560" depart="224.00">
        <route edges="-gneE4 -gneE1 gneE3 gneE6"/>
    </vehicle>
    <vehicle id="564" depart="225.60">
        <route edges="-gneE3 gneE1 gneE4"/>
    </vehicle>
    <vehicle id="565" depart="226.00">
        <route edges="-gneE14 -gneE11 -gneE9 -gneE4 -gneE1 gneE3 gneE6"/>
    </vehicle>
    <vehicle id="568" depart="227.20">
        <route edges="-gneE13 -gneE10 gneE11 gneE14"/>
    </vehicle>
    <vehicle id="569" depart="227.60">
        <route edges="-gneE5 -gneE0 gneE1 gneE4"/>
    </vehicle>
    <vehicle id="575" depart="230.00">
        <route edges="-gneE9 -gneE4"/>
    </vehicle>
    <vehicle id="578" depart="231.20">
        <route edges="-gneE11"/>
    </vehicle>
    <vehicle id="579" depart="231.60">
        <route edges="-gneE1"/>
    </vehicle>
    <vehicle id="580" depart="232.00">
        <route edges="-gneE10 gneE11"/>
    </vehicle>
    <vehicle id="583" depart="233.20">
        <route edges="gneE4 gneE9"/>
    </vehicle>
    <vehicle id="586" depart="234.40">
        <route edges="-gneE14 -gneE11"/>
    </vehicle>
    <vehicle id="589" depart="235.60">
        <route edges="-gneE6 -gneE3 gneE1"/>
    </vehicle>
    <vehicle id="591" depart="236.40">
        <route edges="-gneE16 -gneE12 -gneE9 -gneE4 -gneE1"/>
    </vehicle>
    <vehicle id="596" depart="238.40">
        <route edges="gneE9"/>
    </vehicle>
    <vehicle id="603" depart="241.20">
        <route edges="-gneE16 -gneE12 -gneE9"/>
    </vehicle>
    <vehicle id="611" depart="244.40">
        <route edges="-gneE4 -gneE1 gneE2"/>
    </vehicle>
    <vehicle id="622" depart="248.80">
        <route edges="-gneE2 gneE0"/>
    </vehicle>
    <vehicle id="634" depart="253.60">
        <route edges="-gneE11 gneE12 gneE16"/>
    </vehicle>
    <vehicle id="635" depart="254.00">
        <route edges="-gneE9 -gneE4 -gneE1 gneE2 gneE7"/>
    </vehicle>
    <vehicle id="637" depart="254.80">
        <route edges="gneE10"/>
    </vehicle>
    <vehicle id="639" depart="255.60">
        <route edges="-gneE12 -gneE9 -gneE4 -gneE1 gneE3"/>
    </vehicle>
    <vehicle id="641" depart="256.40">
        <route edges="-gneE10 gneE12 gneE16"/>
    </vehicle>
    <vehicle id="647" depart="258.80">
        <route edges="-gneE14 -gneE11 -gneE9 -gneE4 -gneE1 gneE3 gneE6"/>
    </vehicle>
    <vehicle id="650" depart="260.00">
        <route edges="-gneE5 -gneE0 gneE1"/>
    </vehicle>
    <vehicle id="652" depart="260.80">
        <route edges="gneE3"/>
    </vehicle>
    <vehicle id="657" depart="262.80">
        <route edges="-gneE0 gneE1 gneE4 gneE9 gneE10"/>
    </vehicle>
    <vehicle id="658" depart="263.20">
        <route edges="-gneE12 -gneE9 -gneE4 -gneE1 gneE3"/>
    </vehicle>
    <vehicle id="666" depart="266.40">
        <route edges="-gneE14 -gneE11 -gneE9 -gneE4 -gneE1 gneE2 gneE7"/>
    </vehicle>
    <vehicle id="671" depart="268.40">
        <route edges="-gneE3"/>
    </vehicle>
    <vehicle id="672" depart="268.80">
        <route edges="gneE12 gneE16"/>
    </vehicle>
    <vehicle id="675" depart="270.00">
        <route edges="gneE12"/>
    </vehicle>
    <vehicle id="680" depart="272.00">
        <route edges="-gneE13 -gneE10"/>
    </vehicle>
    <vehicle id="683" depart="273.20">
        <route edges="gneE11"/>
    </vehicle>
    <vehicle id="687" depart="274.80">
        <route edges="-gneE2 gneE3"/>
    </vehicle>
    <vehicle id="688" depart="275.20">
        <route edges="-gneE16 -gneE12 -gneE9"/>
    </vehicle>
    <vehicle id="690" depart="276.00">
        <route edges="-gneE7 -gneE2"/>
    </vehicle>
    <vehicle id="691" depart="276.40">
        <route edges="gneE4 gneE9"/>
    </vehicle>
    <vehicle id="692" depart="276.80">
        <route edges="-gneE3 gneE0"/>
    </vehicle>
    <vehicle id="695" depart="278.00">
        <route edges="-gneE3 gneE0"/>
    </vehicle>
    <vehicle id="697" depart="278.80">
        <route edges="-gneE5 -gneE0 gneE2"/>
    </vehicle>
    <vehicle id="699" depart="279.60">
        <route edges="-gneE11 -gneE9 -gneE4 -gneE1"/>
    </vehicle>
    <vehicle id="700" depart="280.00">
        <route edges="-gneE16 -gneE12"/>
    </vehicle>
    <vehicle id="705" depart="282.00">
        <route edges="-gneE7 -gneE2"/>
    </vehicle>
    <vehicle id="709" depart="283.60">
        <route edges="-gneE5 -gneE0 gneE1 gneE4 gneE9 gneE11"/>
    </vehicle>
    <vehicle id="711" depart="284.40">
        <route edges="gneE1 gneE4 gneE9 gneE10"/>
    </vehicle>
    <vehicle id="716" depart="286.40">
        <route edges="-gneE1 gneE3 gneE6"/>
    </vehicle>
    <vehicle id="719" depart="287.60">
        <route edges="-gneE5 -gneE0 gneE1 gneE4 gneE9 gneE11 gneE14"/>
    </vehicle>
    <vehicle id="723" depart="289.20">
        <route edges="-gneE9 -gneE4 -gneE1 gneE2 gneE7"/>
    </vehicle>
    <vehicle id="726" depart="290.40">
        <route edges="-gneE16 -gneE12 -gneE9 -gneE4 -gneE1"/>
    </vehicle>
    <vehicle id="729" depart="291.60">
        <route edges="-gneE5 -gneE0 gneE1 gneE4 gneE9 gneE11"/>
    </vehicle>
    <vehicle id="731" depart="292.40">
        <route edges="gneE9 gneE10 gneE13"/>
    </vehicle>
    <vehicle id="737" depart="294.80">
        <route edges="-gneE7 -gneE2 gneE0"/>
    </vehicle>
    <vehicle id="742" depart="296.80">
        <route edges="-gneE5 -gneE0 gneE2"/>
    </vehicle>
    <vehicle id="745" depart="298.00">
        <route edges="-gneE3 gneE1 gneE4"/>
    </vehicle>
    <vehicle id="747" depart="298.80">
        <route edges="-gneE0"/>
    </vehicle>
    <vehicle id="751" depart="300.40">
        <route edges="-gneE11"/>
    </vehicle>
    <vehicle id="753" depart="301.20">
        <route edges="-gneE11 -gneE9"/>
    </vehicle>
    <vehicle id="757" depart="302.80">
        <route edges="-gneE6 -gneE3 gneE0 gneE5"/>
    </vehicle>
    <vehicle id="764" depart="305.60">
        <route edges="-gneE0"/>
    </vehicle>
    <vehicle id="765" depart="306.00">
        <route edges="-gneE3 gneE1 gneE4 gneE9 gneE11 gneE14"/>
    </vehicle>
    <vehicle id="767" depart="306.80">
        <route edges="-gneE7 -gneE2 gneE0 gneE5"/>
    </vehicle>
    <vehicle id="770" depart="308.00">
        <route edges="-gneE12 -gneE9 -gneE4"/>
    </vehicle>
    <vehicle id="771" depart="308.40">
        <route edges="-gneE1 gneE2"/>
    </vehicle>
    <vehicle id="774" depart="309.60">
        <route edges="-gneE7 -gneE2 gneE3 gneE6"/>
    </vehicle>
    <vehicle id="777" depart="310.80">
        <route edges="-gneE9 -gneE4 -gneE1 gneE3 gneE6"/>
    </vehicle>
    <vehicle id="778" depart="311.20">
        <route edges="-gneE6 -gneE3 gneE1 gneE4 gneE9"/>
    </vehicle>
    <vehicle id="779" depart="311.60">
        <route edges="-gneE4 -gneE1"/>
    </vehicle>
    <vehicle id="782" depart="312.80">
        <route edges="-gneE11 -gneE9 -gneE4 -gneE1 gneE2"/>
    </vehicle>
    <vehicle id="787" depart="314.80">
        <route edges="-gneE16 -gneE12 -gneE9 -gneE4 -gneE1 gneE3 gneE6"/>
    </vehicle>
    <vehicle id="796" depart="318.40">
        <route edges="gneE0"/>
    </vehicle>
    <vehicle id="804" depart="321.60">
        <route edges="gneE0"/>
    </vehicle>
    <vehicle id="807" depart="322.80">
        <route edges="-gneE11 -gneE9 -gneE4 -gneE1 gneE2 gneE7"/>
    </vehicle>
    <vehicle id="810" depart="324.00">
        <route edges="-gneE12 -gneE9 -gneE4 -gneE1 gneE3"/>
    </vehicle>
    <vehicle id="813" depart="325.20">
        <route edges="-gneE14 -gneE11 gneE12 gneE16"/>
    </vehicle>
    <vehicle id="814" depart="325.60">
        <route edges="-gneE6 -gneE3 gneE1 gneE4"/>
    </vehicle>
    <vehicle id="820" depart="328.00">
        <route edges="-gneE14 -gneE11 -gneE9 -gneE4 -gneE1 gneE2"/>
    </vehicle>
    <vehicle id="823" depart="329.20">
        <route edges="-gneE3 gneE1 gneE4 gneE9 gneE10 gneE13"/>
    </vehicle>
    <vehicle id="827" depart="330.80">
        <route edges="-gneE13 -gneE10 gneE12 gneE16"/>
    </vehicle>
    <vehicle id="832" depart="332.80">
        <route edges="-gneE14 -gneE11 -gneE9 -gneE4 -gneE1 gneE3"/>
    </vehicle>
    <vehicle id="833" depart="333.20">
        <route edges="-gneE16 -gneE12"/>
    </vehicle>
    <vehicle id="836" depart="334.40">
        <route edges="-gneE1"/>
    </vehicle>
    <vehicle id="837" depart="334.80">
        <route edges="-gneE1 gneE3 gneE6"/>
    </vehicle>
    <vehicle id="840" depart="336.00">
        <route edges="-gneE5 -gneE0 gneE1 gneE4 gneE9 gneE11 gneE14"/>
    </vehicle>
    <vehicle id="855" depart="342.00">
        <route edges="-gneE6 -gneE3 gneE0"/>
    </vehicle>
    <vehicle id="856" depart="342.40">
        <route edges="gneE0 gneE5"/>
    </vehicle>
    <vehicle id="860" depart="344.00">
        <route edges="-gneE9 -gneE4 -gneE1 gneE2"/>
    </vehicle>
    <vehicle id="861" depart="344.40">
        <route edges="gneE11 gneE14"/>
    </vehicle>
    <vehicle id="862" depart="344.80">
        <route edges="-gneE3"/>
    </vehicle>
    <vehicle id="863" depart="345.20">
        <route edges="-gneE16 -gneE12"/>
    </vehicle>
    <vehicle id="864" depart="345.60">
        <route edges="-gneE12 gneE10"/>
    </vehicle>
    <vehicle id="866" depart="346.40">
        <route edges="gneE1 gneE4 gneE9 gneE10 gneE13"/>
    </vehicle>
    <vehicle id="869" depart="347.60">
        <route edges="-gneE5 -gneE0 gneE1 gneE4 gneE9 gneE10 gneE13"/>
    </vehicle>
    <vehicle id="873" depart="349.20">
        <route edges="gneE1 gneE4 gneE9 gneE11"/>
    </vehicle>
    <vehicle id="876" depart="350.40">
        <route edges="gneE4"/>
    </vehicle>
    <vehicle id="877" depart="350.80">
        <route edges="-gneE16 -gneE12 gneE10 gneE13"/>
    </vehicle>
    <vehicle id="878" depart="351.20">
        <route edges="gneE1 gneE4"/>
    </vehicle>
    <vehicle id="879" depart="351.60">
        <route edges="-gneE6 -gneE3 gneE1"/>
    </vehicle>
    <vehicle id="883" depart="353.20">
        <route edges="-gneE10"/>
    </vehicle>
    <vehicle id="886" depart="354.40">
        <route edges="-gneE16 -gneE12 -gneE9 -gneE4"/>
    </vehicle>
    <vehicle id="888" depart="355.20">
        <route edges="-gneE10 gneE12 gneE16"/>
    </vehicle>
    <vehicle id="891" depart="356.40">
        <route edges="-gneE14 -gneE11"/>
    </vehicle>
    <vehicle id="895" depart="358.00">
        <route edges="gneE1 gneE4 gneE9"/>
    </vehicle>
    <vehicle id="896" depart="358.40">
        <route edges="-gneE12"/>
    </vehicle>
    <vehicle id="899" depart="359.60">
        <route edges="-gneE12 gneE10"/>
    </vehicle>
    <vehicle id="903" depart="361.20">
        <route edges="-gneE9 -gneE4 -gneE1 gneE2 gneE7"/>
    </vehicle>
    <vehicle id="909" depart="363.60">
        <route edges="-gneE16 -gneE12 -gneE9"/>
    </vehicle>
    <vehicle id="912" depart="364.80">
        <route edges="-gneE7 -gneE2 gneE0"/>
    </vehicle>
    <vehicle id="914" depart="365.60">
        <route edges="-gneE5 -gneE0 gneE1 gneE4 gneE9 gneE10 gneE13"/>
    </vehicle>
    <vehicle id="922" depart="368.80">
        <route edges="-gneE5 -gneE0 gneE1 gneE4 gneE9"/>
    </vehicle>
    <vehicle id="924" depart="369.60">
        <route edges="gneE9 gneE11"/>
    </vehicle>
    <vehicle id="925" depart="370.00">
        <route edges="-gneE7 -gneE2 gneE3 gneE6"/>
    </vehicle>
    <vehicle id="928" depart="371.20">
        <route edges="gneE1"/>
    </vehicle>
    <vehicle id="937" depart="374.80">
        <route edges="-gneE14 -gneE11 -gneE9"/>
    </vehicle>
    <vehicle id="938" depart="375.20">
        <route edges="-gneE7 -gneE2 gneE3 gneE6"/>
    </vehicle>
    <vehicle id="945" depart="378.00">
        <route edges="-gneE11 -gneE9 -gneE4 -gneE1 gneE3 gneE6"/>
    </vehicle>
    <vehicle id="946" depart="378.40">
        <route edges="gneE4"/>
    </vehicle>
    <vehicle id="947" depart="378.80">
        <route edges="-gneE7 -gneE2 gneE3 gneE6"/>
    </vehicle>
    <vehicle id="953" depart="381.20">
        <route edges="-gneE16 -gneE12 -gneE9 -gneE4 -gneE1 gneE3 gneE6"/>
    </vehicle>
    <vehicle id="954" depart="381.60">
        <route edges="-gneE16 -gneE12 -gneE9 -gneE4"/>
    </vehicle>
    <vehicle id="955" depart="382.00">
        <route edges="-gneE7 -gneE2"/>
    </vehicle>
    <vehicle id="957" depart="382.80">
        <route edges="-gneE12 -gneE9 -gneE4 -gneE1 gneE2"/>
    </vehicle>
    <vehicle id="959" depart="383.60">
        <route edges="-gneE3 gneE1 gneE4 gneE9 gneE10 gneE13"/>
    </vehicle>
    <vehicle id="967" depart="386.80">
        <route edges="gneE4 gneE9"/>
    </vehicle>
    <vehicle id="968" depart="387.20">
        <route edges="-gneE1 gneE2 gneE7"/>
    </vehicle>
    <vehicle id="969" depart="387.60">
        <route edges="-gneE14 -gneE11 gneE12 gneE16"/>
    </vehicle>
    <vehicle id="979" depart="391.60">
        <route edges="-gneE7 -gneE2 gneE0 gneE5"/>
    </vehicle>
    <vehicle id="980" depart="392.00">
        <route edges="-gneE0"/>
    </vehicle>
    <vehicle id="987" depart="394.80">
        <route edges="gneE4 gneE9 gneE11"/>
    </vehicle>
    <vehicle id="989" depart="395.60">
        <route edges="-gneE6 -gneE3 gneE1"/>
    </vehicle>
    <vehicle id="995" depart="398.00">
        <route edges="-gneE2 gneE0 gneE5"/>
    </vehicle>
    <vehicle id="1001" depart="400.40">
        <route edges="-gneE10 gneE11 gneE14"/>
    </vehicle>
    <vehicle id="1003" depart="401.20">
        <route edges="-gneE1 gneE3 gneE6"/>
    </vehicle>
    <vehicle id="1015" depart="406.00">
        <route edges="-gneE12 -gneE9 -gneE4 -gneE1 gneE3"/>
    </vehicle>
    <vehicle id="1022" depart="408.80">
        <route edges="-gneE14 -gneE11 -gneE9 -gneE4 -gneE1 gneE2"/>
    </vehicle>
    <vehicle id="1025" depart="410.00">
        <route edges="-gneE9"/>
    </vehicle>
    <vehicle id="1026" depart="410.40">
        <route edges="-gneE11 -gneE9 -gneE4 -gneE1 gneE2"/>
    </vehicle>
    <vehicle id="1027" depart="410.80">
        <route edges="gneE11"/>
    </vehicle>
    <vehicle id="1030" depart="412.00">
        <route edges="-gneE1 gneE3"/>
    </vehicle>
    <vehicle id="1032" depart="412.80">
        <route edges="-gneE11 gneE12"/>
    </vehicle>
    <vehicle id="1034" depart="413.60">
        <route edges="-gneE14 -gneE11 -gneE9"/>
    </vehicle>
    <vehicle id="1039" depart="415.60">
        <route edges="-gneE4 -gneE1 gneE2 gneE7"/>
    </vehicle>
    <vehicle id="1048" depart="419.20">
        <route edges="-gneE16 -gneE12 -gneE9 -gneE4 -gneE1 gneE2"/>
    </vehicle>
    <vehicle id="1049" depart="419.60">
        <route edges="-gneE5 -gneE0 gneE1 gneE4"/>
    </vehicle>
    <vehicle id="1052" depart="420.80">
        <route edges="-gneE9 -gneE4 -gneE1 gneE3"/>
    </vehicle>
    <vehicle id="1056" depart="422.40">
        <route edges="-gneE12 -gneE9"/>
    </vehicle>
    <vehicle id="1058" depart="423.20">