<?xml version="1.0" encoding="UTF-8"?>

<!-- generated on 2021-09-29 19:30:38 by Eclipse SUMO duarouter Version 1.9.2
<configuration xmlns:xsi="http://www.w3.org/2001/XMLSchema-instance" xsi:noNamespaceSchemaLocation="http://sumo.dlr.de/xsd/duarouterConfiguration.xsd">

    <input>
        <net-file value="/home/sonic/Desktop/nets/case03/intersection.net.xml"/>
        <route-files value="trips.trips.xml"/>
    </input>

    <output>
        <output-file value="intersection_random12.rou.xml"/>
        <alternatives-output value="intersection_random12.rou.alt.xml"/>
    </output>

    <time>
        <begin value="0"/>
        <end value="3600.0"/>
    </time>

    <report>
        <no-warnings value="true"/>
        <ignore-errors value="true"/>
        <no-step-log value="true"/>
    </report>

</configuration>
-->

<routes xmlns:xsi="http://www.w3.org/2001/XMLSchema-instance" xsi:noNamespaceSchemaLocation="http://sumo.dlr.de/xsd/routes_file.xsd">
    <vehicle id="7" depart="2.80">
        <route edges="-gneE5 -gneE0 gneE1 gneE4 gneE9 gneE11 gneE14"/>
    </vehicle>
    <vehicle id="30" depart="12.00">
        <route edges="-gneE14 -gneE11 -gneE9 -gneE4 -gneE1 gneE2"/>
    </vehicle>
    <vehicle id="34" depart="13.60">
        <route edges="-gneE16 -gneE12"/>
    </vehicle>
    <vehicle id="37" depart="14.80">
        <route edges="-gneE11 -gneE9 -gneE4"/>
    </vehicle>
    <vehicle id="42" depart="16.80">
        <route edges="-gneE1 gneE2"/>
    </vehicle>
    <vehicle id="43" depart="17.20">
        <route edges="-gneE4 -gneE1 gneE3"/>
    </vehicle>
    <vehicle id="45" depart="18.00">
        <route edges="-gneE9 -gneE4 -gneE1 gneE2"/>
    </vehicle>
    <vehicle id="57" depart="22.80">
        <route edges="-gneE12 -gneE9 -gneE4 -gneE1 gneE3"/>
    </vehicle>
    <vehicle id="61" depart="24.40">
        <route edges="-gneE11"/>
    </vehicle>
    <vehicle id="62" depart="24.80">
        <route edges="-gneE6 -gneE3 gneE1 gneE4 gneE9 gneE10 gneE13"/>
    </vehicle>
    <vehicle id="63" depart="25.20">
        <route edges="-gneE5 -gneE0 gneE2"/>
    </vehicle>
    <vehicle id="74" depart="29.60">
        <route edges="gneE1 gneE4 gneE9 gneE10 gneE13"/>
    </vehicle>
    <vehicle id="75" depart="30.00">
        <route edges="-gneE14 -gneE11 -gneE9 -gneE4 -gneE1 gneE2 gneE7"/>
    </vehicle>
    <vehicle id="83" depart="33.20">
        <route edges="-gneE12 -gneE9 -gneE4 -gneE1"/>
    </vehicle>
    <vehicle id="85" depart="34.00">
        <route edges="gneE4 gneE9 gneE10 gneE13"/>
    </vehicle>
    <vehicle id="86" depart="34.40">
        <route edges="-gneE7 -gneE2 gneE0 gneE5"/>
    </vehicle>
    <vehicle id="87" depart="34.80">
        <route edges="-gneE9 -gneE4 -gneE1 gneE3 gneE6"/>
    </vehicle>
    <vehicle id="101" depart="40.40">
        <route edges="-gneE0 gneE2"/>
    </vehicle>
    <vehicle id="111" depart="44.40">
        <route edges="-gneE5 -gneE0 gneE2 gneE7"/>
    </vehicle>
    <vehicle id="114" depart="45.60">
        <route edges="-gneE14 -gneE11 -gneE9 -gneE4 -gneE1 gneE3"/>
    </vehicle>
    <vehicle id="117" depart="46.80">
        <route edges="-gneE16 -gneE12 -gneE9 -gneE4 -gneE1 gneE2"/>
    </vehicle>
    <vehicle id="119" depart="47.60">
        <route edges="gneE9 gneE11"/>
    </vehicle>
    <vehicle id="131" depart="52.40">
        <route edges="-gneE16 -gneE12 -gneE9 -gneE4 -gneE1 gneE2"/>
    </vehicle>
    <vehicle id="137" depart="54.80">
        <route edges="gneE10"/>
    </vehicle>
    <vehicle id="145" depart="58.00">
        <route edges="-gneE11 -gneE9 -gneE4"/>
    </vehicle>
    <vehicle id="155" depart="62.00">
        <route edges="-gneE13 -gneE10 gneE11"/>
    </vehicle>
    <vehicle id="156" depart="62.40">
        <route edges="-gneE11 -gneE9 -gneE4 -gneE1 gneE2 gneE7"/>
    </vehicle>
    <vehicle id="163" depart="65.20">
        <route edges="-gneE5 -gneE0 gneE2 gneE7"/>
    </vehicle>
    <vehicle id="168" depart="67.20">
        <route edges="-gneE7 -gneE2"/>
    </vehicle>
    <vehicle id="170" depart="68.00">
        <route edges="-gneE11 gneE12"/>
    </vehicle>
    <vehicle id="172" depart="68.80">
        <route edges="gneE1 gneE4 gneE9 gneE10 gneE13"/>
    </vehicle>
    <vehicle id="174" depart="69.60">
        <route edges="gneE11 gneE14"/>
    </vehicle>
    <vehicle id="175" depart="70.00">
        <route edges="gneE0 gneE5"/>
    </vehicle>
    <vehicle id="181" depart="72.40">
        <route edges="-gneE9 -gneE4 -gneE1 gneE2 gneE7"/>
    </vehicle>
    <vehicle id="184" depart="73.60">
        <route edges="-gneE12 -gneE9 -gneE4 -gneE1 gneE3 gneE6"/>
    </vehicle>
    <vehicle id="186" depart="74.40">
        <route edges="-gneE13 -gneE10 gneE11 gneE14"/>
    </vehicle>
    <vehicle id="189" depart="75.60">
        <route edges="-gneE3 gneE1 gneE4 gneE9"/>
    </vehicle>
    <vehicle id="192" depart="76.80">
        <route edges="-gneE1"/>
    </vehicle>
    <vehicle id="194" depart="77.60">
        <route edges="-gneE12 gneE10"/>
    </vehicle>
    <vehicle id="197" depart="78.80">
        <route edges="-gneE13 -gneE10 gneE12"/>
    </vehicle>
    <vehicle id="209" depart="83.60">
        <route edges="gneE4 gneE9 gneE11 gneE14"/>
    </vehicle>
    <vehicle id="210" depart="84.00">
        <route edges="gneE9 gneE11 gneE14"/>
    </vehicle>
    <vehicle id="214" depart="85.60">
        <route edges="-gneE6 -gneE3 gneE0 gneE5"/>
    </vehicle>
    <vehicle id="217" depart="86.80">
        <route edges="-gneE11 gneE12 gneE16"/>
    </vehicle>
    <vehicle id="219" depart="87.60">
        <route edges="gneE9 gneE11"/>
    </vehicle>
    <vehicle id="221" depart="88.40">
        <route edges="-gneE9 -gneE4 -gneE1 gneE3"/>
    </vehicle>
    <vehicle id="222" depart="88.80">
        <route edges="-gneE14 -gneE11 gneE12 gneE16"/>
    </vehicle>
    <vehicle id="225" depart="90.00">
        <route edges="-gneE6 -gneE3 gneE0 gneE5"/>
    </vehicle>
    <vehicle id="228" depart="91.20">
        <route edges="gneE1"/>
    </vehicle>
    <vehicle id="229" depart="91.60">
        <route edges="-gneE9 -gneE4 -gneE1 gneE3 gneE6"/>
    </vehicle>
    <vehicle id="240" depart="96.00">
        <route edges="-gneE10"/>
    </vehicle>
    <vehicle id="245" depart="98.00">
        <route edges="-gneE11"/>
    </vehicle>
    <vehicle id="246" depart="98.40">
        <route edges="-gneE2 gneE3"/>
    </vehicle>
    <vehicle id="249" depart="99.60">
        <route edges="gneE2 gneE7"/>
    </vehicle>
    <vehicle id="252" depart="100.80">
        <route edges="-gneE12 -gneE9 -gneE4 -gneE1 gneE2 gneE7"/>
    </vehicle>
    <vehicle id="254" depart="101.60">
        <route edges="-gneE14 -gneE11 -gneE9 -gneE4"/>
    </vehicle>
    <vehicle id="256" depart="102.40">
        <route edges="-gneE7 -gneE2"/>
    </vehicle>
    <vehicle id="260" depart="104.00">
        <route edges="-gneE12 -gneE9 -gneE4 -gneE1 gneE2"/>
    </vehicle>
    <vehicle id="263" depart="105.20">
        <route edges="gneE0"/>
    </vehicle>
    <vehicle id="267" depart="106.80">
        <route edges="-gneE11 -gneE9 -gneE4"/>
    </vehicle>
    <vehicle id="270" depart="108.00">
        <route edges="-gneE14 -gneE11 -gneE9 -gneE4 -gneE1 gneE2"/>
    </vehicle>
    <vehicle id="272" depart="108.80">
        <route edges="-gneE0 gneE1 gneE4 gneE9 gneE11 gneE14"/>
    </vehicle>
    <vehicle id="281" depart="112.40">
        <route edges="-gneE14 -gneE11 -gneE9 -gneE4 -gneE1 gneE2 gneE7"/>
    </vehicle>
    <vehicle id="284" depart="113.60">
        <route edges="gneE4 gneE9 gneE11 gneE14"/>
    </vehicle>
    <vehicle id="285" depart="114.00">
        <route edges="-gneE9 -gneE4 -gneE1 gneE2 gneE7"/>
    </vehicle>
    <vehicle id="291" depart="116.40">
        <route edges="-gneE0 gneE1 gneE4 gneE9 gneE10"/>
    </vehicle>
    <vehicle id="300" depart="120.00">
        <route edges="-gneE6 -gneE3 gneE0 gneE5"/>
    </vehicle>
    <vehicle id="304" depart="121.60">
        <route edges="gneE11 gneE14"/>
    </vehicle>
    <vehicle id="307" depart="122.80">
        <route edges="-gneE10 gneE11"/>
    </vehicle>
    <vehicle id="318" depart="127.20">
        <route edges="-gneE12 -gneE9 -gneE4 -gneE1 gneE2 gneE7"/>
    </vehicle>
    <vehicle id="322" depart="128.80">
        <route edges="-gneE3 gneE1 gneE4 gneE9 gneE10 gneE13"/>
    </vehicle>
    <vehicle id="324" depart="129.60">
        <route edges="-gneE11 -gneE9 -gneE4 -gneE1 gneE3 gneE6"/>
    </vehicle>
    <vehicle id="330" depart="132.00">
        <route edges="gneE1 gneE4 gneE9 gneE10"/>
    </vehicle>
    <vehicle id="333" depart="133.20">
        <route edges="-gneE5 -gneE0 gneE1 gneE4 gneE9 gneE10"/>
    </vehicle>
    <vehicle id="340" depart="136.00">
        <route edges="gneE4 gneE9"/>
    </vehicle>
    <vehicle id="341" depart="136.40">
        <route edges="-gneE3 gneE1 gneE4 gneE9"/>
    </vehicle>
    <vehicle id="342" depart="136.80">
        <route edges="-gneE5 -gneE0 gneE1 gneE4 gneE9 gneE10 gneE13"/>
    </vehicle>
    <vehicle id="360" depart="144.00">
        <route edges="gneE3"/>
    </vehicle>
    <vehicle id="363" depart="145.20">
        <route edges="gneE1"/>
    </vehicle>
    <vehicle id="365" depart="146.00">
        <route edges="-gneE0 gneE1"/>
    </vehicle>
    <vehicle id="366" depart="146.40">
        <route edges="-gneE3 gneE1 gneE4 gneE9 gneE11"/>
    </vehicle>
    <vehicle id="373" depart="149.20">
        <route edges="gneE2"/>
    </vehicle>
    <vehicle id="379" depart="151.60">
        <route edges="-gneE5 -gneE0 gneE1 gneE4 gneE9"/>
    </vehicle>
    <vehicle id="382" depart="152.80">
        <route edges="-gneE3"/>
    </vehicle>
    <vehicle id="389" depart="155.60">
        <route edges="-gneE12 gneE10 gneE13"/>
    </vehicle>
    <vehicle id="395" depart="158.00">
        <route edges="-gneE6 -gneE3 gneE1 gneE4 gneE9 gneE11"/>
    </vehicle>
    <vehicle id="397" depart="158.80">
        <route edges="-gneE2 gneE3 gneE6"/>
    </vehicle>
    <vehicle id="401" depart="160.40">
        <route edges="-gneE5 -gneE0 gneE2"/>
    </vehicle>
    <vehicle id="403" depart="161.20">
        <route edges="gneE2 gneE7"/>
    </vehicle>
    <vehicle id="409" depart="163.60">
        <route edges="-gneE0 gneE2"/>
    </vehicle>
    <vehicle id="412" depart="164.80">
        <route edges="-gneE5 -gneE0 gneE1 gneE4 gneE9 gneE11 gneE14"/>
    </vehicle>
    <vehicle id="418" depart="167.20">
        <route edges="gneE11 gneE14"/>
    </vehicle>
    <vehicle id="419" depart="167.60">
        <route edges="-gneE14 -gneE11 -gneE9 -gneE4 -gneE1 gneE2"/>
    </vehicle>
    <vehicle id="421" depart="168.40">
        <route edges="-gneE14 -gneE11 -gneE9"/>
    </vehicle>
    <vehicle id="425" depart="170.00">
        <route edges="gneE1 gneE4 gneE9 gneE10"/>
    </vehicle>
    <vehicle id="426" depart="170.40">
        <route edges="gneE4 gneE9 gneE10 gneE13"/>
    </vehicle>
    <vehicle id="427" depart="170.80">
        <route edges="gneE2"/>
    </vehicle>
    <vehicle id="429" depart="171.60">
        <route edges="-gneE9 -gneE4"/>
    </vehicle>
    <vehicle id="430" depart="172.00">
        <route edges="-gneE13 -gneE10 gneE12 gneE16"/>
    </vehicle>
    <vehicle id="432" depart="172.80">
        <route edges="-gneE16 -gneE12 gneE10 gneE13"/>
    </vehicle>
    <vehicle id="433" depart="173.20">
        <route edges="-gneE4 -gneE1 gneE3 gneE6"/>
    </vehicle>
    <vehicle id="437" depart="174.80">
        <route edges="-gneE9 -gneE4 -gneE1 gneE2 gneE7"/>
    </vehicle>
    <vehicle id="442" depart="176.80">
        <route edges="-gneE12 -gneE9 -gneE4 -gneE1 gneE2 gneE7"/>
    </vehicle>
    <vehicle id="451" depart="180.40">
        <route edges="-gneE4 -gneE1 gneE3 gneE6"/>
    </vehicle>
    <vehicle id="452" depart="180.80">
        <route edges="gneE10"/>
    </vehicle>
    <vehicle id="456" depart="182.40">
        <route edges="-gneE3 gneE1 gneE4 gneE9"/>
    </vehicle>
    <vehicle id="458" depart="183.20">
        <route edges="-gneE3 gneE1 gneE4 gneE9 gneE11"/>
    </vehicle>
    <vehicle id="459" depart="183.60">
        <route edges="gneE4"/>
    </vehicle>
    <vehicle id="464" depart="185.60">
        <route edges="-gneE4 -gneE1"/>
    </vehicle>
    <vehicle id="465" depart="186.00">
        <route edges="gneE10"/>
    </vehicle>
    <vehicle id="471" depart="188.40">
        <route edges="-gneE9 -gneE4 -gneE1 gneE2"/>
    </vehicle>
    <vehicle id="474" depart="189.60">
        <route edges="-gneE5 -gneE0 gneE1 gneE4 gneE9 gneE10"/>
    </vehicle>
    <vehicle id="492" depart="196.80">
        <route edges="-gneE0 gneE1 gneE4 gneE9 gneE10 gneE13"/>
    </vehicle>
    <vehicle id="494" depart="197.60">
        <route edges="gneE0 gneE5"/>
    </vehicle>
    <vehicle id="495" depart="198.00">
        <route edges="-gneE9 -gneE4 -gneE1 gneE3"/>
    </vehicle>
    <vehicle id="496" depart="198.40">
        <route edges="-gneE13 -gneE10 gneE11 gneE14"/>
    </vehicle>
    <vehicle id="497" depart="198.80">
        <route edges="-gneE0 gneE1 gneE4 gneE9 gneE11 gneE14"/>
    </vehicle>
    <vehicle id="499" depart="199.60">
        <route edges="-gneE0 gneE1 gneE4 gneE9 gneE11 gneE14"/>
    </vehicle>
    <vehicle id="511" depart="204.40">
        <route edges="-gneE5 -gneE0 gneE2"/>
    </vehicle>
    <vehicle id="513" depart="205.20">
        <route edges="-gneE11 -gneE9 -gneE4 -gneE1 gneE2"/>
    </vehicle>
    <vehicle id="515" depart="206.00">
        <route edges="-gneE0 gneE1 gneE4 gneE9 gneE10 gneE13"/>
    </vehicle>
    <vehicle id="520" depart="208.00">
        <route edges="-gneE5 -gneE0 gneE1 gneE4 gneE9"/>
    </vehicle>
    <vehicle id="541" depart="216.40">
        <route edges="-gneE12 -gneE9 -gneE4 -gneE1"/>
    </vehicle>
    <vehicle id="544" depart="217.60">
        <route edges="-gneE1 gneE3"/>
    </vehicle>
    <vehicle id="557" depart="222.80">
        <route edges="-gneE12 -gneE9 -gneE4 -gneE1 gneE3 gneE6"/>
    </vehicle>
    <vehicle id="558" depart="223.20">
        <route edges="-gneE10 gneE11 gneE14"/>
    </vehicle>
    <vehicle id="559" depart="223.60">
        <route edges="-gneE3 gneE1"/>
    </vehicle>
    <vehicle id="561" depart="224.40">
        <route edges="-gneE11 -gneE9 -gneE4 -gneE1 gneE3"/>
    </vehicle>
    <vehicle id="563" depart="225.20">
        <route edges="-gneE11 -gneE9 -gneE4 -gneE1 gneE2 gneE7"/>
    </vehicle>
    <vehicle id="571" depart="228.40">
        <route edges="gneE10 gneE13"/>
    </vehicle>
    <vehicle id="578" depart="231.20">
        <route edges="-gneE6 -gneE3"/>
    </vehicle>
    <vehicle id="581" depart="232.40">
        <route edges="-gneE6 -gneE3"/>
    </vehicle>
    <vehicle id="583" depart="233.20">
        <route edges="-gneE6 -gneE3 gneE1 gneE4 gneE9"/>
    </vehicle>
    <vehicle id="584" depart="233.60">
        <route edges="gneE1 gneE4 gneE9 gneE11"/>
    </vehicle>
    <vehicle id="594" depart="237.60">
        <route edges="-gneE16 -gneE12 -gneE9 -gneE4 -gneE1 gneE3"/>
    </vehicle>
    <vehicle id="598" depart="239.20">
        <route edges="-gneE7 -gneE2 gneE3"/>
    </vehicle>
    <vehicle id="599" depart="239.60">
        <route edges="-gneE14 -gneE11 -gneE9 -gneE4 -gneE1 gneE2"/>
    </vehicle>
    <vehicle id="601" depart="240.40">
        <route edges="-gneE7 -gneE2 gneE3"/>
    </vehicle>
    <vehicle id="606" depart="242.40">
        <route edges="gneE4 gneE9"/>
    </vehicle>
    <vehicle id="612" depart="244.80">
        <route edges="-gneE0 gneE1 gneE4 gneE9"/>
    </vehicle>
    <vehicle id="613" depart="245.20">
        <route edges="-gneE14 -gneE11"/>
    </vehicle>
    <vehicle id="614" depart="245.60">
        <route edges="-gneE9"/>
    </vehicle>
    <vehicle id="618" depart="247.20">
        <route edges="-gneE12"/>
    </vehicle>
    <vehicle id="619" depart="247.60">
        <route edges="-gneE14 -gneE11 -gneE9 -gneE4"/>
    </vehicle>
    <vehicle id="624" depart="249.60">
        <route edges="-gneE16 -gneE12 -gneE9 -gneE4 -gneE1 gneE3"/>
    </vehicle>
    <vehicle id="629" depart="251.60">
        <route edges="-gneE2 gneE0"/>
    </vehicle>
    <vehicle id="632" depart="252.80">
        <route edges="-gneE0 gneE2 gneE7"/>
    </vehicle>
    <vehicle id="636" depart="254.40">
        <route edges="-gneE3 gneE1 gneE4 gneE9 gneE10"/>
    </vehicle>
    <vehicle id="638" depart="255.20">
        <route edges="-gneE6 -gneE3 gneE1 gneE4"/>
    </vehicle>
    <vehicle id="646" depart="258.40">
        <route edges="gneE4"/>
    </vehicle>
    <vehicle id="648" depart="259.20">
        <route edges="-gneE11 -gneE9 -gneE4"/>
    </vehicle>
    <vehicle id="650" depart="260.00">
        <route edges="-gneE16 -gneE12 -gneE9 -gneE4 -gneE1 gneE3"/>
    </vehicle>
    <vehicle id="651" depart="260.40">
        <route edges="-gneE2 gneE3"/>
    </vehicle>
    <vehicle id="652" depart="260.80">
        <route edges="-gneE10 gneE12 gneE16"/>
    </vehicle>
    <vehicle id="655" depart="262.00">
        <route edges="-gneE7 -gneE2 gneE0 gneE5"/>
    </vehicle>
    <vehicle id="656" depart="262.40">
        <route edges="-gneE3 gneE1 gneE4"/>
    </vehicle>
    <vehicle id="657" depart="262.80">
        <route edges="-gneE14 -gneE11 -gneE9"/>
    </vehicle>
    <vehicle id="658" depart="263.20">
        <route edges="gneE2 gneE7"/>
    </vehicle>
    <vehicle id="660" depart="264.00">
        <route edges="-gneE4 -gneE1 gneE3"/>
    </vehicle>
    <vehicle id="664" depart="265.60">
        <route edges="-gneE0 gneE1 gneE4 gneE9 gneE10 gneE13"/>
    </vehicle>
    <vehicle id="666" depart="266.40">
        <route edges="-gneE14 -gneE11 gneE12 gneE16"/>
    </vehicle>
    <vehicle id="671" depart="268.40">
        <route edges="gneE9 gneE11 gneE14"/>
    </vehicle>
    <vehicle id="685" depart="274.00">
        <route edges="-gneE0 gneE2"/>
    </vehicle>
    <vehicle id="686" depart="274.40">
        <route edges="gneE3"/>
    </vehicle>
    <vehicle id="687" depart="274.80">
        <route edges="-gneE6 -gneE3 gneE1 gneE4"/>
    </vehicle>
    <vehicle id="689" depart="275.60">
        <route edges="-gneE3"/>
    </vehicle>
    <vehicle id="703" depart="281.20">
        <route edges="gneE12"/>
    </vehicle>
    <vehicle id="708" depart="283.20">
        <route edges="gneE1 gneE4 gneE9 gneE10"/>
    </vehicle>
    <vehicle id="711" depart="284.40">
        <route edges="-gneE0 gneE1 gneE4 gneE9 gneE10 gneE13"/>
    </vehicle>
    <vehicle id="714" depart="285.60">
        <route edges="gneE1 gneE4 gneE9 gneE11"/>
    </vehicle>
    <vehicle id="717" depart="286.80">
        <route edges="-gneE14 -gneE11 -gneE9 -gneE4 -gneE1 gneE3"/>
    </vehicle>
    <vehicle id="727" depart="290.80">
        <route edges="-gneE6 -gneE3 gneE1 gneE4 gneE9 gneE11 gneE14"/>
    </vehicle>
    <vehicle id="729" depart="291.60">
        <route edges="-gneE9 -gneE4 -gneE1 gneE2 gneE7"/>
    </vehicle>
    <vehicle id="743" depart="297.20">
        <route edges="-gneE5 -gneE0 gneE1 gneE4 gneE9 gneE10 gneE13"/>
    </vehicle>
    <vehicle id="744" depart="297.60">
        <route edges="-gneE12 -gneE9 -gneE4"/>
    </vehicle>
    <vehicle id="745" depart="298.00">
        <route edges="gneE4"/>
    </vehicle>
    <vehicle id="749" depart="299.60">
        <route edges="-gneE3 gneE1 gneE4 gneE9 gneE10"/>
    </vehicle>
    <vehicle id="763" depart="305.20">
        <route edges="-gneE0 gneE1 gneE4 gneE9 gneE10 gneE13"/>
    </vehicle>
    <vehicle id="764" depart="305.60">
        <route edges="-gneE6 -gneE3 gneE1 gneE4"/>
    </vehicle>
    <vehicle id="768" depart="307.20">
        <route edges="-gneE6 -gneE3 gneE1 gneE4 gneE9"/>
    </vehicle>
    <vehicle id="769" depart="307.60">
        <route edges="gneE0 gneE5"/>
    </vehicle>
    <vehicle id="770" depart="308.00">
        <route edges="gneE0"/>
    </vehicle>
    <vehicle id="772" depart="308.80">
        <route edges="-gneE16 -gneE12 -gneE9"/>
    </vehicle>
    <vehicle id="778" depart="311.20">
        <route edges="-gneE5 -gneE0 gneE1 gneE4 gneE9 gneE10"/>
    </vehicle>
    <vehicle id="786" depart="314.40">
        <route edges="gneE4"/>
    </vehicle>
    <vehicle id="787" depart="314.80">
        <route edges="gneE4 gneE9 gneE10"/>
    </vehicle>
    <vehicle id="792" depart="316.80">
        <route edges="-gneE16 -gneE12 -gneE9 -gneE4 -gneE1 gneE2"/>
    </vehicle>
    <vehicle id="797" depart="318.80">
        <route edges="-gneE5 -gneE0 gneE1 gneE4 gneE9 gneE10"/>
    </vehicle>
    <vehicle id="803" depart="321.20">
        <route edges="gneE11"/>
    </vehicle>
    <vehicle id="811" depart="324.40">
        <route edges="gneE11 gneE14"/>
    </vehicle>
    <vehicle id="818" depart="327.20">
        <route edges="-gneE12 -gneE9 -gneE4 -gneE1 gneE2"/>
    </vehicle>
    <vehicle id="821" depart="328.40">
        <route edges="-gneE12 -gneE9"/>
    </vehicle>
    <vehicle id="822" depart="328.80">
        <route edges="-gneE5 -gneE0 gneE1 gneE4 gneE9 gneE11"/>
    </vehicle>
    <vehicle id="825" depart="330.00">
        <route edges="-gneE14 -gneE11 -gneE9"/>
    </vehicle>
    <vehicle id="826" depart="330.40">
        <route edges="-gneE9 -gneE4 -gneE1 gneE3"/>
    </vehicle>
    <vehicle id="831" depart="332.40">
        <route edges="gneE0 gneE5"/>
    </vehicle>
    <vehicle id="833" depart="333.20">
        <route edges="-gneE6 -gneE3 gneE1 gneE4 gneE9 gneE10"/>
    </vehicle>
    <vehicle id="840" depart="336.00">
        <route edges="-gneE11 gneE12 gneE16"/>
    </vehicle>
    <vehicle id="845" depart="338.00">
        <route edges="-gneE11 gneE12"/>
    </vehicle>
    <vehicle id="847" depart="338.80">
        <route edges="-gneE12 -gneE9 -gneE4 -gneE1 gneE3"/>
    </vehicle>
    <vehicle id="850" depart="340.00">
        <route edges="-gneE5 -gneE0 gneE1 gneE4 gneE9 gneE10 gneE13"/>
    </vehicle>
    <vehicle id="851" depart="340.40">
        <route edges="gneE4 gneE9 gneE10"/>
    </vehicle>
    <vehicle id="855" depart="342.00">
        <route edges="-gneE13 -gneE10 gneE12"/>
    </vehicle>
    <vehicle id="858" depart="343.20">
        <route edges="-gneE16 -gneE12 gneE10 gneE13"/>
    </vehicle>
    <vehicle id="862" depart="344.80">
        <route edges="-gneE12 gneE10"/>
    </vehicle>
    <vehicle id="865" depart="346.00">
        <route edges="-gneE9 -gneE4 -gneE1 gneE3 gneE6"/>
    </vehicle>
    <vehicle id="867" depart="346.80">
        <route edges="-gneE16 -gneE12 gneE10"/>
    </vehicle>
    <vehicle id="873" depart="349.20">
        <route edges="-gneE0 gneE1 gneE4 gneE9 gneE10"/>
    </vehicle>
    <vehicle id="874" depart="349.60">
        <route edges="gneE1 gneE4"/>
    </vehicle>
    <vehicle id="877" depart="350.80">
        <route edges="-gneE9"/>
    </vehicle>
    <vehicle id="882" depart="352.80">
        <route edges="-gneE13 -gneE10"/>
    </vehicle>
    <vehicle id="886" depart="354.40">
        <route edges="-gneE11 -gneE9"/>
    </vehicle>
    <vehicle id="893" depart="357.20">
        <route edges="-gneE0 gneE1 gneE4 gneE9 gneE10"/>
    </vehicle>
    <vehicle id="895" depart="358.00">
        <route edges="-gneE13 -gneE10 gneE12"/>
    </vehicle>
    <vehicle id="900" depart="360.00">
        <route edges="gneE3 gneE6"/>
    </vehicle>
    <vehicle id="906" depart="362.40">
        <route edges="-gneE11"/>
    </vehicle>
    <vehicle id="919" depart="367.60">
        <route edges="-gneE16 -gneE12 -gneE9 -gneE4 -gneE1 gneE3 gneE6"/>
    </vehicle>
    <vehicle id="921" depart="368.40">
        <route edges="-gneE0 gneE2 gneE7"/>
    </vehicle>
    <vehicle id="924" depart="369.60">
        <route edges="-gneE0 gneE1 gneE4 gneE9"/>
    </vehicle>
    <vehicle id="926" depart="370.40">
        <route edges="gneE1 gneE4 gneE9 gneE11"/>
    </vehicle>
    <vehicle id="928" depart="371.20">
        <route edges="gneE9 gneE11 gneE14"/>
    </vehicle>
    <vehicle id="933" depart="373.20">
        <route edges="-gneE12 -gneE9 -gneE4 -gneE1"/>
    </vehicle>
    <vehicle id="937" depart="374.80">
        <route edges="gneE1 gneE4 gneE9 gneE11 gneE14"/>
    </vehicle>
    <vehicle id="946" depart="378.40">
        <route edges="-gneE1 gneE2 gneE7"/>
    </vehicle>
    <vehicle id="947" depart="378.80">
        <route edges="-gneE9 -gneE4 -gneE1 gneE2 gneE7"/>
    </vehicle>
    <vehicle id="948" depart="379.20">
        <route edges="-gneE12 -gneE9 -gneE4 -gneE1 gneE3 gneE6"/>
    </vehicle>
    <vehicle id="952" depart="380.80">
        <route edges="-gneE12 -gneE9 -gneE4 -gneE1 gneE3 gneE6"/>
    </vehicle>
    <vehicle id="967" depart="386.80">
        <route edges="-gneE0 gneE1 gneE4 gneE9 gneE10 gneE13"/>
    </vehicle>
    <vehicle id="976" depart="390.40">
        <route edges="gneE10 gneE13"/>
    </vehicle>
    <vehicle id="978" depart="391.20">
        <route edges="gneE1 gneE4 gneE9"/>
    </vehicle>
    <vehicle id="985" depart="394.00">
        <route edges="-gneE0 gneE2 gneE7"/>
    </vehicle>
    <vehicle id="996" depart="398.40">
        <route edges="-gneE2 gneE0"/>
    </vehicle>
    <vehicle id="1001" depart="400.40">
        <route edges="-gneE0 gneE1 gneE4 gneE9"/>
    </vehicle>
    <vehicle id="1003" depart="401.20">
        <route edges="-gneE0 gneE1 gneE4 gneE9 gneE10"/>
    </vehicle>
    <vehicle id="1007" depart="402.80">
        <route edges="gneE9 gneE10"/>
    </vehicle>
    <vehicle id="1008" depart="403.20">
        <route edges="-gneE10 gneE11"/>
    </vehicle>
    <vehicle id="1012" depart="404.80">
        <route edges="-gneE0 gneE1 gneE4 gneE9 gneE11"/>
    </vehicle>
    <vehicle id="1016" depart="406.40">
        <route edges="-gneE2 gneE3"/>
    </vehicle>
    <vehicle id="1019" depart="407.60">
        <route edges="-gneE3 gneE1 gneE4 gneE9 gneE10"/>
    </vehicle>
    <vehicle id="1021" depart="408.40">
        <route edges="gneE9 gneE10"/>
    </vehicle>
    <vehicle id="1038" depart="415.20">
        <route edges="gneE9 gneE10 gneE13"/>
    </vehicle>
    <vehicle id="1045" depart="418.00">
        <route edges="-gneE4 -gneE1 gneE2 gneE7"/>
    </vehicle>
    <vehicle id="1050" depart="420.00">
        <route edges="-gneE11 -gneE9 -gneE4 -gneE1 gneE3 gneE6"/>
    </vehicle>
    <vehicle id="1054" depart="421.60">
        <route edges="-gneE5 -gneE0 gneE1 gneE4 gneE9 gneE11 gneE14"/>
    </vehicle>
    <vehicle id="1060" depart="424.00">
        <route edges="-gneE11 -gneE9 -gneE4 -gneE1 gneE2"/>
    </vehicle>
    <vehicle id="1061" depart="424.40">
        <route edges="-gneE0"/>
    </vehicle>
    <vehicle id="1062" depart="424.80">
        <route edges="-gneE14 -gneE11"/>
    </vehicle>
    <vehicle id="1064" depart="425.60">
        <route edges="gneE12"/>
    </vehicle>
    <vehicle id="1065" depart="426.00">
        <route edges="-gneE1 gneE2 gneE7"/>
    </vehicle>
    <vehicle id="1070" depart="428.00">
        <route edges="gneE1 gneE4 gneE9 gneE10 gneE13"/>
    </vehicle>
    <vehicle id="1077" depart="430.80">
        <route edges="-gneE16 -gneE12 gneE10"/>
    </vehicle>
    <vehicle id="1079" depart="431.60">
        <route edges="-gneE11 -gneE9 -gneE4 -gneE1 gneE3 gneE6"/>
    </vehicle>
    <vehicle id="1081" depart="432.40">
        <route edges="-gneE2 gneE0"/>
    </vehicle>
    <vehicle id="1084" depart="433.60">
        <route edges="-gneE12 -gneE9 -gneE4 -gneE1 gneE2"/>
    </vehicle>
    <vehicle id="1087" depart="434.80">
        <route edges="-gneE11 -gneE9 -gneE4 -gneE1 gneE2 gneE7"/>
    </vehicle>
    <vehicle id="1088" depart="435.20">
        <route edges="gneE2"/>
    </vehicle>
    <vehicle id="1099" depart="439.60">
        <route edges="-gneE10 gneE12"/>
    </vehicle>
    <vehicle id="1102" depart="440.80">
        <route edges="-gneE12 -gneE9 -gneE4 -gneE1 gneE3 gneE6"/>
    </vehicle>
    <vehicle id="1106" depart="442.40">
        <route edges="-gneE4 -gneE1"/>
    </vehicle>
    <vehicle id="1107" depart="442.80">
        <route edges="-gneE16 -gneE12 -gneE9 -gneE4 -gneE1"/>
    </vehicle>
    <vehicle id="1108" depart="443.20">
        <route edges="-gneE11 -gneE9 -gneE4 -gneE1 gneE2"/>
    </vehicle>
    <vehicle id="1111" depart="444.40">
        <route edges="-gneE16 -gneE12 -gneE9"/>
    </vehicle>
    <vehicle id="1112" depart="444.80">
        <route edges="-gneE14 -gneE11 -gneE9 -gneE4 -gneE1 gneE3"/>
    </vehicle>
    <vehicle id="1120" depart="448.00">
        <route edges="-gneE12 -gneE9 -gneE4 -gneE1 gneE2 gneE7"/>
    </vehicle>
    <vehicle id="1132" depart="452.80">
        <route edges="-gneE1 gneE2 gneE7"/>
    </vehicle>
    <vehicle id="1133" depart="453.20">
        <route edges="-gneE10 gneE11 gneE14"/>
    </vehicle>
    <vehicle id="1137" depart="454.80">
        <route edges="-gneE16 -gneE12 -gneE9 -gneE4 -gneE1 gneE3"/>
    </vehicle>
    <vehicle id="1138" depart="455.20">
        <route edges="gneE2"/>
    </vehicle>
    <vehicle id="1139" depart="455.60">
        <route edges="-gneE12 -gneE9 -gneE4 -gneE1 gneE3 gneE6"/>
    </vehicle>
    <vehicle id="1141" depart="456.40">
        <route edges="gneE9 gneE10"/>
    </vehicle>
    <vehicle id="1142" depart="456.80">
        <route edges="-gneE9 -gneE4 -gneE1 gneE3 gneE6"/>
    </vehicle>
    <vehicle id="1143" depart="457.20">
        <route edges="-gneE1 gneE3 gneE6"/>
    </vehicle>
    <vehicle id="1144" depart="457.60">
        <route edges="-gneE4"/>
    </vehicle>
    <vehicle id="1148" depart="459.20">
        <route edges="-gneE6 -gneE3 gneE1 gneE4"/>
    </vehicle>
    <vehicle id="1151" depart="460.40">
        <route edges="-gneE10 gneE11 gneE14"/>
    </vehicle>
    <vehicle id="1154" depart="461.60">
        <route edges="-gneE10"/>
    </vehicle>
    <vehicle id="1155" depart="462.00">
        <route edges="gneE1 gneE4 gneE9 gneE11 gneE14"/>
    </vehicle>
    <vehicle id="1157" depart="462.80">
        <route edges="-gneE5 -gneE0 gneE1 gneE4 gneE9 gneE10 gneE13"/>
    </vehicle>
    <vehicle id="1158" depart="463.20">
        <route edges="-gneE0 gneE1 gneE4"/>
    </vehicle>
    <vehicle id="1164" depart="465.60">