<?xml version="1.0" encoding="UTF-8"?>

<!-- generated on 2021-09-29 19:30:42 by Eclipse SUMO duarouter Version 1.9.2
<configuration xmlns:xsi="http://www.w3.org/2001/XMLSchema-instance" xsi:noNamespaceSchemaLocation="http://sumo.dlr.de/xsd/duarouterConfiguration.xsd">

    <input>
        <net-file value="/home/sonic/Desktop/nets/case03/intersection.net.xml"/>
        <route-files value="trips.trips.xml"/>
    </input>

    <output>
        <output-file value="intersection_random19.rou.xml"/>
        <alternatives-output value="intersection_random19.rou.alt.xml"/>
    </output>

    <time>
        <begin value="0"/>
        <end value="3600.0"/>
    </time>

    <report>
        <no-warnings value="true"/>
        <ignore-errors value="true"/>
        <no-step-log value="true"/>
    </report>

</configuration>
-->

<routes xmlns:xsi="http://www.w3.org/2001/XMLSchema-instance" xsi:noNamespaceSchemaLocation="http://sumo.dlr.de/xsd/routes_file.xsd">
    <vehicle id="13" depart="5.20">
        <route edges="-gneE14 -gneE11 -gneE9 -gneE4 -gneE1"/>
    </vehicle>
    <vehicle id="18" depart="7.20">
        <route edges="gneE1 gneE4 gneE9 gneE10 gneE13"/>
    </vehicle>
    <vehicle id="28" depart="11.20">
        <route edges="-gneE16 -gneE12 -gneE9 -gneE4 -gneE1"/>
    </vehicle>
    <vehicle id="31" depart="12.40">
        <route edges="-gneE6 -gneE3 gneE1 gneE4"/>
    </vehicle>
    <vehicle id="32" depart="12.80">
        <route edges="-gneE7 -gneE2 gneE0"/>
    </vehicle>
    <vehicle id="33" depart="13.20">
        <route edges="-gneE16 -gneE12 -gneE9 -gneE4 -gneE1 gneE2"/>
    </vehicle>
    <vehicle id="35" depart="14.00">
        <route edges="-gneE6 -gneE3 gneE1 gneE4 gneE9"/>
    </vehicle>
    <vehicle id="46" depart="18.40">
        <route edges="-gneE11 -gneE9 -gneE4 -gneE1 gneE3"/>
    </vehicle>
    <vehicle id="48" depart="19.20">
        <route edges="-gneE2 gneE3 gneE6"/>
    </vehicle>
    <vehicle id="52" depart="20.80">
        <route edges="-gneE12 -gneE9 -gneE4"/>
    </vehicle>
    <vehicle id="56" depart="22.40">
        <route edges="-gneE1 gneE3 gneE6"/>
    </vehicle>
    <vehicle id="58" depart="23.20">
        <route edges="gneE1 gneE4 gneE9"/>
    </vehicle>
    <vehicle id="61" depart="24.40">
        <route edges="-gneE5 -gneE0"/>
    </vehicle>
    <vehicle id="62" depart="24.80">
        <route edges="-gneE12 -gneE9 -gneE4 -gneE1 gneE2"/>
    </vehicle>
    <vehicle id="65" depart="26.00">
        <route edges="gneE9 gneE10"/>
    </vehicle>
    <vehicle id="86" depart="34.40">
        <route edges="-gneE3 gneE1 gneE4 gneE9 gneE10"/>
    </vehicle>
    <vehicle id="91" depart="36.40">
        <route edges="-gneE12 gneE10 gneE13"/>
    </vehicle>
    <vehicle id="93" depart="37.20">
        <route edges="-gneE16 -gneE12 -gneE9 -gneE4 -gneE1"/>
    </vehicle>
    <vehicle id="94" depart="37.60">
        <route edges="-gneE16 -gneE12"/>
    </vehicle>
    <vehicle id="96" depart="38.40">
        <route edges="-gneE3 gneE1 gneE4 gneE9 gneE10"/>
    </vehicle>
    <vehicle id="97" depart="38.80">
        <route edges="-gneE5 -gneE0 gneE1 gneE4 gneE9 gneE10"/>
    </vehicle>
    <vehicle id="98" depart="39.20">
        <route edges="-gneE16 -gneE12 -gneE9 -gneE4 -gneE1"/>
    </vehicle>
    <vehicle id="108" depart="43.20">
        <route edges="-gneE14 -gneE11 -gneE9 -gneE4 -gneE1 gneE3"/>
    </vehicle>
    <vehicle id="109" depart="43.60">
        <route edges="gneE3 gneE6"/>
    </vehicle>
    <vehicle id="112" depart="44.80">
        <route edges="-gneE13 -gneE10"/>
    </vehicle>
    <vehicle id="114" depart="45.60">
        <route edges="-gneE14 -gneE11 gneE12 gneE16"/>
    </vehicle>
    <vehicle id="132" depart="52.80">
        <route edges="gneE1 gneE4 gneE9 gneE10"/>
    </vehicle>
    <vehicle id="136" depart="54.40">
        <route edges="-gneE12 -gneE9 -gneE4 -gneE1 gneE3"/>
    </vehicle>
    <vehicle id="137" depart="54.80">
        <route edges="-gneE13 -gneE10 gneE11"/>
    </vehicle>
    <vehicle id="140" depart="56.00">
        <route edges="-gneE5 -gneE0 gneE1 gneE4 gneE9 gneE10"/>
    </vehicle>
    <vehicle id="146" depart="58.40">
        <route edges="-gneE16 -gneE12 -gneE9 -gneE4 -gneE1"/>
    </vehicle>
    <vehicle id="150" depart="60.00">
        <route edges="-gneE11 -gneE9 -gneE4 -gneE1 gneE2 gneE7"/>
    </vehicle>
    <vehicle id="152" depart="60.80">
        <route edges="gneE1"/>
    </vehicle>
    <vehicle id="153" depart="61.20">
        <route edges="-gneE6 -gneE3 gneE1 gneE4 gneE9"/>
    </vehicle>
    <vehicle id="155" depart="62.00">
        <route edges="-gneE16 -gneE12 -gneE9 -gneE4 -gneE1 gneE3"/>
    </vehicle>
    <vehicle id="158" depart="63.20">
        <route edges="gneE9 gneE11"/>
    </vehicle>
    <vehicle id="162" depart="64.80">
        <route edges="gneE9 gneE10"/>
    </vehicle>
    <vehicle id="165" depart="66.00">
        <route edges="-gneE1"/>
    </vehicle>
    <vehicle id="166" depart="66.40">
        <route edges="-gneE11 -gneE9 -gneE4 -gneE1 gneE2"/>
    </vehicle>
    <vehicle id="170" depart="68.00">
        <route edges="-gneE12 -gneE9 -gneE4"/>
    </vehicle>
    <vehicle id="171" depart="68.40">
        <route edges="-gneE11 -gneE9 -gneE4"/>
    </vehicle>
    <vehicle id="172" depart="68.80">
        <route edges="-gneE4 -gneE1 gneE2"/>
    </vehicle>
    <vehicle id="177" depart="70.80">
        <route edges="-gneE16 -gneE12 gneE10"/>
    </vehicle>
    <vehicle id="182" depart="72.80">
        <route edges="-gneE11 -gneE9 -gneE4 -gneE1 gneE2 gneE7"/>
    </vehicle>
    <vehicle id="183" depart="73.20">
        <route edges="gneE1 gneE4 gneE9 gneE11"/>
    </vehicle>
    <vehicle id="185" depart="74.00">
        <route edges="-gneE11 -gneE9 -gneE4 -gneE1 gneE3 gneE6"/>
    </vehicle>
    <vehicle id="186" depart="74.40">
        <route edges="-gneE2 gneE0 gneE5"/>
    </vehicle>
    <vehicle id="189" depart="75.60">
        <route edges="-gneE5 -gneE0 gneE1 gneE4 gneE9 gneE10 gneE13"/>
    </vehicle>
    <vehicle id="193" depart="77.20">
        <route edges="-gneE9 -gneE4"/>
    </vehicle>
    <vehicle id="197" depart="78.80">
        <route edges="-gneE7 -gneE2"/>
    </vehicle>
    <vehicle id="202" depart="80.80">
        <route edges="-gneE14 -gneE11 -gneE9 -gneE4 -gneE1 gneE2 gneE7"/>
    </vehicle>
    <vehicle id="206" depart="82.40">
        <route edges="-gneE10 gneE11 gneE14"/>
    </vehicle>
    <vehicle id="208" depart="83.20">
        <route edges="-gneE12 -gneE9 -gneE4 -gneE1 gneE2"/>
    </vehicle>
    <vehicle id="211" depart="84.40">
        <route edges="-gneE3 gneE1 gneE4 gneE9 gneE10"/>
    </vehicle>
    <vehicle id="215" depart="86.00">
        <route edges="-gneE14 -gneE11 gneE12 gneE16"/>
    </vehicle>
    <vehicle id="218" depart="87.20">
        <route edges="-gneE10 gneE11 gneE14"/>
    </vehicle>
    <vehicle id="220" depart="88.00">
        <route edges="-gneE3 gneE1 gneE4 gneE9 gneE10"/>
    </vehicle>
    <vehicle id="230" depart="92.00">
        <route edges="-gneE14 -gneE11 -gneE9 -gneE4 -gneE1 gneE3 gneE6"/>
    </vehicle>
    <vehicle id="232" depart="92.80">
        <route edges="gneE1 gneE4 gneE9 gneE11 gneE14"/>
    </vehicle>
    <vehicle id="233" depart="93.20">
        <route edges="-gneE9 -gneE4 -gneE1 gneE2 gneE7"/>
    </vehicle>
    <vehicle id="236" depart="94.40">
        <route edges="-gneE5 -gneE0 gneE1 gneE4 gneE9 gneE11 gneE14"/>
    </vehicle>
    <vehicle id="243" depart="97.20">
        <route edges="-gneE13 -gneE10 gneE11"/>
    </vehicle>
    <vehicle id="247" depart="98.80">
        <route edges="-gneE5 -gneE0 gneE1 gneE4 gneE9 gneE10"/>
    </vehicle>
    <vehicle id="255" depart="102.00">
        <route edges="-gneE9"/>
    </vehicle>
    <vehicle id="256" depart="102.40">
        <route edges="-gneE9 -gneE4 -gneE1 gneE2"/>
    </vehicle>
    <vehicle id="264" depart="105.60">
        <route edges="-gneE9 -gneE4 -gneE1"/>
    </vehicle>
    <vehicle id="265" depart="106.00">
        <route edges="-gneE6 -gneE3 gneE0 gneE5"/>
    </vehicle>
    <vehicle id="268" depart="107.20">
        <route edges="-gneE6 -gneE3 gneE1 gneE4 gneE9 gneE11"/>
    </vehicle>
    <vehicle id="269" depart="107.60">
        <route edges="gneE0"/>
    </vehicle>
    <vehicle id="270" depart="108.00">
        <route edges="-gneE5 -gneE0 gneE1 gneE4 gneE9 gneE11"/>
    </vehicle>
    <vehicle id="275" depart="110.00">
        <route edges="-gneE5 -gneE0 gneE1 gneE4 gneE9 gneE11 gneE14"/>
    </vehicle>
    <vehicle id="277" depart="110.80">
        <route edges="gneE11 gneE14"/>
    </vehicle>
    <vehicle id="278" depart="111.20">
        <route edges="-gneE12 -gneE9 -gneE4 -gneE1 gneE3"/>
    </vehicle>
    <vehicle id="280" depart="112.00">
        <route edges="-gneE16 -gneE12 gneE10"/>
    </vehicle>
    <vehicle id="281" depart="112.40">
        <route edges="-gneE11 -gneE9 -gneE4 -gneE1 gneE3"/>
    </vehicle>
    <vehicle id="286" depart="114.40">
        <route edges="-gneE11 gneE12 gneE16"/>
    </vehicle>
    <vehicle id="295" depart="118.00">
        <route edges="-gneE0 gneE1 gneE4 gneE9 gneE11"/>
    </vehicle>
    <vehicle id="296" depart="118.40">
        <route edges="gneE4"/>
    </vehicle>
    <vehicle id="297" depart="118.80">
        <route edges="gneE11"/>
    </vehicle>
    <vehicle id="298" depart="119.20">
        <route edges="-gneE2 gneE3"/>
    </vehicle>
    <vehicle id="302" depart="120.80">
        <route edges="gneE9 gneE10"/>
    </vehicle>
    <vehicle id="303" depart="121.20">
        <route edges="-gneE11 -gneE9 -gneE4 -gneE1 gneE3 gneE6"/>
    </vehicle>
    <vehicle id="304" depart="121.60">
        <route edges="gneE11"/>
    </vehicle>
    <vehicle id="305" depart="122.00">
        <route edges="-gneE11 -gneE9"/>
    </vehicle>
    <vehicle id="311" depart="124.40">
        <route edges="-gneE2"/>
    </vehicle>
    <vehicle id="313" depart="125.20">
        <route edges="-gneE2 gneE0 gneE5"/>
    </vehicle>
    <vehicle id="315" depart="126.00">
        <route edges="-gneE16 -gneE12 -gneE9 -gneE4 -gneE1"/>
    </vehicle>
    <vehicle id="321" depart="128.40">
        <route edges="-gneE12 -gneE9 -gneE4 -gneE1"/>
    </vehicle>
    <vehicle id="324" depart="129.60">
        <route edges="-gneE13 -gneE10 gneE12 gneE16"/>
    </vehicle>
    <vehicle id="338" depart="135.20">
        <route edges="-gneE5 -gneE0"/>
    </vehicle>
    <vehicle id="345" depart="138.00">
        <route edges="-gneE0 gneE1 gneE4 gneE9"/>
    </vehicle>
    <vehicle id="347" depart="138.80">
        <route edges="-gneE5 -gneE0 gneE1"/>
    </vehicle>
    <vehicle id="354" depart="141.60">
        <route edges="gneE12 gneE16"/>
    </vehicle>
    <vehicle id="359" depart="143.60">
        <route edges="gneE2"/>
    </vehicle>
    <vehicle id="367" depart="146.80">
        <route edges="-gneE6 -gneE3 gneE1 gneE4 gneE9 gneE10"/>
    </vehicle>
    <vehicle id="370" depart="148.00">
        <route edges="-gneE16 -gneE12 -gneE9 -gneE4 -gneE1 gneE2 gneE7"/>
    </vehicle>
    <vehicle id="372" depart="148.80">
        <route edges="-gneE0 gneE1 gneE4 gneE9 gneE10"/>
    </vehicle>
    <vehicle id="374" depart="149.60">
        <route edges="gneE4 gneE9 gneE11 gneE14"/>
    </vehicle>
    <vehicle id="377" depart="150.80">
        <route edges="gneE1 gneE4 gneE9"/>
    </vehicle>
    <vehicle id="395" depart="158.00">
        <route edges="-gneE3 gneE1 gneE4 gneE9 gneE11"/>
    </vehicle>
    <vehicle id="402" depart="160.80">
        <route edges="-gneE4 -gneE1 gneE2 gneE7"/>
    </vehicle>
    <vehicle id="407" depart="162.80">
        <route edges="-gneE7 -gneE2 gneE3"/>
    </vehicle>
    <vehicle id="408" depart="163.20">
        <route edges="gneE1 gneE4 gneE9 gneE10 gneE13"/>
    </vehicle>
    <vehicle id="410" depart="164.00">
        <route edges="-gneE11 -gneE9 -gneE4 -gneE1"/>
    </vehicle>
    <vehicle id="424" depart="169.60">
        <route edges="-gneE11 -gneE9 -gneE4 -gneE1 gneE2"/>
    </vehicle>
    <vehicle id="426" depart="170.40">
        <route edges="-gneE14 -gneE11 -gneE9 -gneE4 -gneE1 gneE2"/>
    </vehicle>
    <vehicle id="432" depart="172.80">
        <route edges="-gneE3 gneE0"/>
    </vehicle>
    <vehicle id="438" depart="175.20">
        <route edges="-gneE12 -gneE9 -gneE4 -gneE1 gneE3 gneE6"/>
    </vehicle>
    <vehicle id="439" depart="175.60">
        <route edges="-gneE0 gneE1 gneE4"/>
    </vehicle>
    <vehicle id="444" depart="177.60">
        <route edges="-gneE14 -gneE11 gneE12"/>
    </vehicle>
    <vehicle id="447" depart="178.80">
        <route edges="gneE12 gneE16"/>
    </vehicle>
    <vehicle id="449" depart="179.60">
        <route edges="-gneE6 -gneE3 gneE1 gneE4 gneE9 gneE10"/>
    </vehicle>
    <vehicle id="451" depart="180.40">
        <route edges="-gneE12 -gneE9 -gneE4 -gneE1 gneE3"/>
    </vehicle>
    <vehicle id="452" depart="180.80">
        <route edges="-gneE4 -gneE1 gneE3 gneE6"/>
    </vehicle>
    <vehicle id="453" depart="181.20">
        <route edges="gneE1 gneE4 gneE9 gneE10"/>
    </vehicle>
    <vehicle id="456" depart="182.40">
        <route edges="-gneE11 -gneE9 -gneE4 -gneE1 gneE2"/>
    </vehicle>
    <vehicle id="457" depart="182.80">
        <route edges="-gneE9 -gneE4 -gneE1 gneE2 gneE7"/>
    </vehicle>
    <vehicle id="460" depart="184.00">
        <route edges="-gneE11 -gneE9 -gneE4 -gneE1 gneE3 gneE6"/>
    </vehicle>
    <vehicle id="463" depart="185.20">
        <route edges="-gneE0 gneE1 gneE4 gneE9 gneE11"/>
    </vehicle>
    <vehicle id="467" depart="186.80">
        <route edges="-gneE12 gneE10 gneE13"/>
    </vehicle>
    <vehicle id="476" depart="190.40">
        <route edges="-gneE11 -gneE9 -gneE4 -gneE1 gneE3 gneE6"/>
    </vehicle>
    <vehicle id="477" depart="190.80">
        <route edges="-gneE14 -gneE11 -gneE9 -gneE4"/>
    </vehicle>
    <vehicle id="487" depart="194.80">
        <route edges="gneE9 gneE10 gneE13"/>
    </vehicle>
    <vehicle id="489" depart="195.60">
        <route edges="-gneE5 -gneE0 gneE1"/>
    </vehicle>
    <vehicle id="490" depart="196.00">
        <route edges="gneE4 gneE9 gneE10"/>
    </vehicle>
    <vehicle id="496" depart="198.40">
        <route edges="-gneE12 -gneE9"/>
    </vehicle>
    <vehicle id="497" depart="198.80">
        <route edges="-gneE4"/>
    </vehicle>
    <vehicle id="501" depart="200.40">
        <route edges="-gneE0 gneE2"/>
    </vehicle>
    <vehicle id="502" depart="200.80">
        <route edges="-gneE14 -gneE11 -gneE9 -gneE4 -gneE1 gneE2 gneE7"/>
    </vehicle>
    <vehicle id="512" depart="204.80">
        <route edges="-gneE5 -gneE0 gneE1 gneE4"/>
    </vehicle>
    <vehicle id="514" depart="205.60">
        <route edges="gneE9 gneE10"/>
    </vehicle>
    <vehicle id="517" depart="206.80">
        <route edges="-gneE10"/>
    </vehicle>
    <vehicle id="518" depart="207.20">
        <route edges="gneE2 gneE7"/>
    </vehicle>
    <vehicle id="524" depart="209.60">
        <route edges="-gneE12 -gneE9"/>
    </vehicle>
    <vehicle id="525" depart="210.00">
        <route edges="-gneE4 -gneE1"/>
    </vehicle>
    <vehicle id="533" depart="213.20">
        <route edges="-gneE0 gneE2 gneE7"/>
    </vehicle>
    <vehicle id="536" depart="214.40">
        <route edges="-gneE4 -gneE1 gneE2"/>
    </vehicle>
    <vehicle id="538" depart="215.20">
        <route edges="gneE4 gneE9 gneE10 gneE13"/>
    </vehicle>
    <vehicle id="540" depart="216.00">
        <route edges="-gneE16 -gneE12 -gneE9 -gneE4"/>
    </vehicle>
    <vehicle id="542" depart="216.80">
        <route edges="-gneE6 -gneE3 gneE1 gneE4 gneE9 gneE10 gneE13"/>
    </vehicle>
    <vehicle id="548" depart="219.20">
        <route edges="gneE4 gneE9"/>
    </vehicle>
    <vehicle id="551" depart="220.40">
        <route edges="-gneE3 gneE1"/>
    </vehicle>
    <vehicle id="554" depart="221.60">
        <route edges="-gneE11 -gneE9"/>
    </vehicle>
    <vehicle id="557" depart="222.80">
        <route edges="-gneE6 -gneE3 gneE0 gneE5"/>
    </vehicle>
    <vehicle id="559" depart="223.60">
        <route edges="-gneE0 gneE1 gneE4 gneE9 gneE10"/>
    </vehicle>
    <vehicle id="561" depart="224.40">
        <route edges="-gneE11 -gneE9 -gneE4 -gneE1 gneE2 gneE7"/>
    </vehicle>
    <vehicle id="566" depart="226.40">
        <route edges="-gneE14 -gneE11 gneE12"/>
    </vehicle>
    <vehicle id="567" depart="226.80">
        <route edges="-gneE3 gneE1 gneE4 gneE9 gneE10 gneE13"/>
    </vehicle>
    <vehicle id="568" depart="227.20">
        <route edges="-gneE14 -gneE11 gneE12"/>
    </vehicle>
    <vehicle id="577" depart="230.80">
        <route edges="-gneE10 gneE11"/>
    </vehicle>
    <vehicle id="578" depart="231.20">
        <route edges="gneE9"/>
    </vehicle>
    <vehicle id="583" depart="233.20">
        <route edges="-gneE6 -gneE3 gneE0 gneE5"/>
    </vehicle>
    <vehicle id="588" depart="235.20">
        <route edges="-gneE6 -gneE3 gneE1 gneE4 gneE9"/>
    </vehicle>
    <vehicle id="591" depart="236.40">
        <route edges="gneE9 gneE10"/>
    </vehicle>
    <vehicle id="595" depart="238.00">
        <route edges="-gneE16 -gneE12 -gneE9 -gneE4 -gneE1 gneE3"/>
    </vehicle>
    <vehicle id="596" depart="238.40">
        <route edges="gneE1 gneE4 gneE9 gneE11 gneE14"/>
    </vehicle>
    <vehicle id="600" depart="240.00">
        <route edges="-gneE5 -gneE0 gneE1"/>
    </vehicle>
    <vehicle id="610" depart="244.00">
        <route edges="-gneE16 -gneE12 -gneE9 -gneE4 -gneE1 gneE3"/>
    </vehicle>
    <vehicle id="614" depart="245.60">
        <route edges="-gneE14 -gneE11 -gneE9 -gneE4"/>
    </vehicle>
    <vehicle id="618" depart="247.20">
        <route edges="gneE0 gneE5"/>
    </vehicle>
    <vehicle id="619" depart="247.60">
        <route edges="-gneE4 -gneE1 gneE3"/>
    </vehicle>
    <vehicle id="624" depart="249.60">
        <route edges="-gneE12 -gneE9 -gneE4"/>
    </vehicle>
    <vehicle id="626" depart="250.40">
        <route edges="-gneE7 -gneE2 gneE3 gneE6"/>
    </vehicle>
    <vehicle id="629" depart="251.60">
        <route edges="-gneE1"/>
    </vehicle>
    <vehicle id="632" depart="252.80">
        <route edges="-gneE14 -gneE11 -gneE9 -gneE4 -gneE1 gneE2"/>
    </vehicle>
    <vehicle id="633" depart="253.20">
        <route edges="-gneE14 -gneE11 -gneE9 -gneE4 -gneE1 gneE3 gneE6"/>
    </vehicle>
    <vehicle id="634" depart="253.60">
        <route edges="-gneE14 -gneE11 gneE12 gneE16"/>
    </vehicle>
    <vehicle id="638" depart="255.20">
        <route edges="-gneE16 -gneE12 -gneE9 -gneE4 -gneE1 gneE2"/>
    </vehicle>
    <vehicle id="642" depart="256.80">
        <route edges="-gneE4 -gneE1 gneE3"/>
    </vehicle>
    <vehicle id="650" depart="260.00">
        <route edges="-gneE0 gneE1 gneE4"/>
    </vehicle>
    <vehicle id="651" depart="260.40">
        <route edges="-gneE7 -gneE2 gneE3 gneE6"/>
    </vehicle>
    <vehicle id="652" depart="260.80">
        <route edges="-gneE9 -gneE4 -gneE1 gneE2 gneE7"/>
    </vehicle>
    <vehicle id="655" depart="262.00">
        <route edges="-gneE0 gneE1 gneE4 gneE9 gneE11 gneE14"/>
    </vehicle>
    <vehicle id="659" depart="263.60">
        <route edges="gneE9 gneE11 gneE14"/>
    </vehicle>
    <vehicle id="660" depart="264.00">
        <route edges="-gneE9"/>
    </vehicle>
    <vehicle id="661" depart="264.40">
        <route edges="-gneE16 -gneE12 -gneE9 -gneE4 -gneE1 gneE2 gneE7"/>
    </vehicle>
    <vehicle id="662" depart="264.80">
        <route edges="-gneE10"/>
    </vehicle>
    <vehicle id="663" depart="265.20">
        <route edges="-gneE6 -gneE3 gneE1 gneE4 gneE9 gneE11 gneE14"/>
    </vehicle>
    <vehicle id="669" depart="267.60">
        <route edges="-gneE11 -gneE9 -gneE4 -gneE1 gneE3 gneE6"/>
    </vehicle>
    <vehicle id="670" depart="268.00">
        <route edges="-gneE13 -gneE10 gneE11 gneE14"/>
    </vehicle>
    <vehicle id="672" depart="268.80">
        <route edges="-gneE5 -gneE0 gneE1"/>
    </vehicle>
    <vehicle id="682" depart="272.80">
        <route edges="-gneE12 gneE10 gneE13"/>
    </vehicle>
    <vehicle id="686" depart="274.40">
        <route edges="gneE1 gneE4 gneE9 gneE11 gneE14"/>
    </vehicle>
    <vehicle id="692" depart="276.80">
        <route edges="-gneE11 -gneE9 -gneE4 -gneE1 gneE2"/>
    </vehicle>
    <vehicle id="693" depart="277.20">
        <route edges="-gneE13 -gneE10 gneE11"/>
    </vehicle>
    <vehicle id="694" depart="277.60">
        <route edges="-gneE0 gneE1 gneE4 gneE9 gneE11"/>
    </vehicle>
    <vehicle id="708" depart="283.20">
        <route edges="-gneE6 -gneE3 gneE0 gneE5"/>
    </vehicle>
    <vehicle id="709" depart="283.60">
        <route edges="-gneE14 -gneE11 -gneE9 -gneE4 -gneE1"/>
    </vehicle>
    <vehicle id="710" depart="284.00">
        <route edges="-gneE13 -gneE10"/>
    </vehicle>
    <vehicle id="712" depart="284.80">
        <route edges="gneE4 gneE9 gneE11"/>
    </vehicle>
    <vehicle id="713" depart="285.20">
        <route edges="-gneE10 gneE12 gneE16"/>
    </vehicle>
    <vehicle id="717" depart="286.80">
        <route edges="-gneE7 -gneE2 gneE0"/>
    </vehicle>
    <vehicle id="719" depart="287.60">
        <route edges="-gneE5 -gneE0 gneE1 gneE4 gneE9 gneE11"/>
    </vehicle>
    <vehicle id="722" depart="288.80">
        <route edges="gneE9 gneE11"/>
    </vehicle>
    <vehicle id="725" depart="290.00">
        <route edges="gneE9"/>
    </vehicle>
    <vehicle id="726" depart="290.40">
        <route edges="-gneE12 -gneE9 -gneE4 -gneE1 gneE3 gneE6"/>
    </vehicle>
    <vehicle id="728" depart="291.20">
        <route edges="gneE2"/>
    </vehicle>
    <vehicle id="729" depart="291.60">
        <route edges="-gneE14 -gneE11 -gneE9"/>
    </vehicle>
    <vehicle id="730" depart="292.00">
        <route edges="-gneE14 -gneE11"/>
    </vehicle>
    <vehicle id="743" depart="297.20">
        <route edges="-gneE2 gneE0 gneE5"/>
    </vehicle>
    <vehicle id="744" depart="297.60">
        <route edges="-gneE10 gneE12 gneE16"/>
    </vehicle>
    <vehicle id="750" depart="300.00">
        <route edges="gneE0 gneE5"/>
    </vehicle>
    <vehicle id="752" depart="300.80">
        <route edges="-gneE4 -gneE1 gneE2 gneE7"/>
    </vehicle>
    <vehicle id="755" depart="302.00">
        <route edges="-gneE3"/>
    </vehicle>
    <vehicle id="756" depart="302.40">
        <route edges="-gneE3 gneE1 gneE4 gneE9 gneE11 gneE14"/>
    </vehicle>
    <vehicle id="760" depart="304.00">
        <route edges="-gneE11 gneE12"/>
    </vehicle>
    <vehicle id="769" depart="307.60">
        <route edges="-gneE16 -gneE12 -gneE9 -gneE4"/>
    </vehicle>
    <vehicle id="780" depart="312.00">
        <route edges="-gneE12 -gneE9 -gneE4"/>
    </vehicle>
    <vehicle id="781" depart="312.40">
        <route edges="gneE11"/>
    </vehicle>
    <vehicle id="782" depart="312.80">
        <route edges="-gneE4 -gneE1 gneE2"/>
    </vehicle>
    <vehicle id="789" depart="315.60">
        <route edges="gneE1 gneE4"/>
    </vehicle>
    <vehicle id="792" depart="316.80">
        <route edges="-gneE7 -gneE2"/>
    </vehicle>
    <vehicle id="794" depart="317.60">
        <route edges="-gneE4 -gneE1 gneE3"/>
    </vehicle>
    <vehicle id="799" depart="319.60">
        <route edges="-gneE0 gneE1 gneE4 gneE9 gneE10 gneE13"/>
    </vehicle>
    <vehicle id="801" depart="320.40">
        <route edges="-gneE5 -gneE0 gneE1 gneE4 gneE9 gneE11"/>
    </vehicle>
    <vehicle id="804" depart="321.60">
        <route edges="-gneE0 gneE1"/>
    </vehicle>
    <vehicle id="805" depart="322.00">
        <route edges="-gneE3 gneE0 gneE5"/>
    </vehicle>
    <vehicle id="809" depart="323.60">
        <route edges="-gneE5 -gneE0 gneE2 gneE7"/>
    </vehicle>
    <vehicle id="812" depart="324.80">
        <route edges="-gneE6 -gneE3"/>
    </vehicle>
    <vehicle id="824" depart="329.60">
        <route edges="-gneE5 -gneE0 gneE1 gneE4 gneE9"/>
    </vehicle>
    <vehicle id="825" depart="330.00">
        <route edges="-gneE6 -gneE3 gneE0"/>
    </vehicle>
    <vehicle id="829" depart="331.60">
        <route edges="-gneE14 -gneE11 gneE12"/>
    </vehicle>
    <vehicle id="830" depart="332.00">
        <route edges="gneE1 gneE4 gneE9"/>
    </vehicle>
    <vehicle id="833" depart="333.20">
        <route edges="-gneE1 gneE3 gneE6"/>
    </vehicle>
    <vehicle id="836" depart="334.40">
        <route edges="gneE1 gneE4 gneE9"/>
    </vehicle>
    <vehicle id="839" depart="335.60">
        <route edges="-gneE5 -gneE0 gneE1 gneE4 gneE9"/>
    </vehicle>
    <vehicle id="843" depart="337.20">
        <route edges="-gneE2 gneE3 gneE6"/>
    </vehicle>
    <vehicle id="847" depart="338.80">
        <route edges="-gneE4 -gneE1 gneE2"/>
    </vehicle>
    <vehicle id="849" depart="339.60">
        <route edges="-gneE12 gneE10 gneE13"/>
    </vehicle>
    <vehicle id="850" depart="340.00">
        <route edges="gneE9 gneE10 gneE13"/>
    </vehicle>
    <vehicle id="853" depart="341.20">
        <route edges="-gneE16 -gneE12 -gneE9 -gneE4 -gneE1 gneE2 gneE7"/>
    </vehicle>
    <vehicle id="854" depart="341.60">
        <route edges="gneE9"/>
    </vehicle>
    <vehicle id="860" depart="344.00">
        <route edges="-gneE0 gneE1 gneE4 gneE9 gneE10 gneE13"/>
    </vehicle>
    <vehicle id="861" depart="344.40">
        <route edges="-gneE14 -gneE11 -gneE9 -gneE4 -gneE1 gneE3 gneE6"/>
    </vehicle>
    <vehicle id="863" depart="345.20">
        <route edges="gneE1 gneE4 gneE9 gneE10 gneE13"/>
    </vehicle>
    <vehicle id="865" depart="346.00">
        <route edges="-gneE9"/>
    </vehicle>
    <vehicle id="870" depart="348.00">
        <route edges="-gneE5 -gneE0 gneE1 gneE4"/>
    </vehicle>
    <vehicle id="879" depart="351.60">
        <route edges="gneE2 gneE7"/>
    </vehicle>
    <vehicle id="883" depart="353.20">
        <route edges="-gneE16 -gneE12 -gneE9 -gneE4"/>
    </vehicle>
    <vehicle id="884" depart="353.60">
        <route edges="-gneE14 -gneE11 -gneE9 -gneE4 -gneE1"/>
    </vehicle>
    <vehicle id="888" depart="355.20">
        <route edges="gneE1"/>
    </vehicle>
    <vehicle id="892" depart="356.80">
        <route edges="-gneE10"/>
    </vehicle>
    <vehicle id="904" depart="361.60">
        <route edges="gneE9 gneE11 gneE14"/>
    </vehicle>
    <vehicle id="907" depart="362.80">
        <route edges="gneE1 gneE4 gneE9 gneE10"/>
    </vehicle>
    <vehicle id="908" depart="363.20">
        <route edges="gneE4 gneE9 gneE10"/>
    </vehicle>
    <vehicle id="909" depart="363.60">
        <route edges="-gneE11 -gneE9 -gneE4 -gneE1 gneE3"/>
    </vehicle>
    <vehicle id="918" depart="367.20">
        <route edges="-gneE6 -gneE3 gneE1 gneE4 gneE9"/>
    </vehicle>
    <vehicle id="920" depart="368.00">
        <route edges="-gneE6 -gneE3 gneE1 gneE4"/>
    </vehicle>
    <vehicle id="922" depart="368.80">
        <route edges="-gneE13 -gneE10 gneE11 gneE14"/>
    </vehicle>
    <vehicle id="923" depart="369.20">
        <route edges="-gneE7 -gneE2 gneE3 gneE6"/>
    </vehicle>
    <vehicle id="931" depart="372.40">
        <route edges="gneE3 gneE6"/>
    </vehicle>
    <vehicle id="937" depart="374.80">
        <route edges="-gneE2 gneE0"/>
    </vehicle>
    <vehicle id="951" depart="380.40">
        <route edges="gneE12 gneE16"/>
    </vehicle>
    <vehicle id="952" depart="380.80">
        <route edges="-gneE16 -gneE12 -gneE9 -gneE4 -gneE1 gneE2"/>
    </vehicle>
    <vehicle id="957" depart="382.80">
        <route edges="gneE11"/>
    </vehicle>
    <vehicle id="967" depart="386.80">
        <route edges="gneE1 gneE4 gneE9"/>
    </vehicle>
    <vehicle id="972" depart="388.80">
        <route edges="-gneE14 -gneE11 gneE12 gneE16"/>
    </vehicle>
    <vehicle id="978" depart="391.20">
        <route edges="-gneE11 -gneE9 -gneE4"/>
    </vehicle>
    <vehicle id="981" depart="392.40">
        <route edges="-gneE7 -gneE2 gneE0 gneE5"/>
    </vehicle>
    <vehicle id="998" depart="399.20">
        <route edges="gneE4 gneE9"/>
    </vehicle>
    <vehicle id="1001" depart="400.40">
        <route edges="-gneE3 gneE1"/>
    </vehicle>
    <vehicle id="1006" depart="402.40">
        <route edges="gneE2"/>
    </vehicle>
    <vehicle id="1008" depart="403.20">
        <route edges="-gneE14 -gneE11 -gneE9 -gneE4"/>
    </vehicle>
    <vehicle id="1009" depart="403.60">
        <route edges="-gneE3 gneE0"/>
    </vehicle>
    <vehicle id="1010" depart="404.00">
        <route edges="-gneE12"/>
    </vehicle>
    <vehicle id="1011" depart="404.40">
        <route edges="-gneE5 -gneE0 gneE2 gneE7"/>
    </vehicle>
    <vehicle id="1012" depart="404.80">
        <route edges="-gneE10"/>
    </vehicle>
    <vehicle id="1017" depart="406.80">
        <route edges="-gneE6 -gneE3 gneE1 gneE4 gneE9 gneE10"/>
    </vehicle>
    <vehicle id="1024" depart="409.60">
        <route edges="gneE1 gneE4"/>
    </vehicle>
    <vehicle id="1032" depart="412.80">
        <route edges="-gneE6 -gneE3 gneE1 gneE4"/>
    </vehicle>
    <vehicle id="1033" depart="413.20">
        <route edges="gneE4 gneE9 gneE11"/>
    </vehicle>
    <vehicle id="1034" depart="413.60">
        <route edges="-gneE14 -gneE11 -gneE9 -gneE4 -gneE1 gneE3"/>
    </vehicle>
    <vehicle id="1035" depart="414.00">
        <route edges="-gneE12 -gneE9"/>
    </vehicle>
    <vehicle id="1036" depart="414.40">
        <route edges="-gneE3"/>
    </vehicle>
    <vehicle id="1037" depart="414.80">
        <route edges="-gneE12 -gneE9 -gneE4 -gneE1 gneE2"/>
    </vehicle>
    <vehicle id="1038" depart="415.20">
        <route edges="-gneE14 -gneE11 -gneE9 -gneE4"/>
    </vehicle>
    <vehicle id="1040" depart="416.00">
        <route edges="-gneE2"/>
    </vehicle>
    <vehicle id="1043" depart="417.20">
        <route edges="-gneE16 -gneE12"/>
    </vehicle>
    <vehicle id="1049" depart="419.60">
        <route edges="-gneE5 -gneE0 gneE1"/>
    </vehicle>
    <vehicle id="1053" depart="421.20">
        <route edges="gneE1 gneE4 gneE9 gneE11 gneE14"/>