<?xml version="1.0" encoding="UTF-8"?>

<!-- generated on 2021-09-29 19:30:46 by Eclipse SUMO duarouter Version 1.9.2
<configuration xmlns:xsi="http://www.w3.org/2001/XMLSchema-instance" xsi:noNamespaceSchemaLocation="http://sumo.dlr.de/xsd/duarouterConfiguration.xsd">

    <input>
        <net-file value="/home/sonic/Desktop/nets/case03/intersection.net.xml"/>
        <route-files value="trips.trips.xml"/>
    </input>

    <output>
        <output-file value="intersection_random27.rou.xml"/>
        <alternatives-output value="intersection_random27.rou.alt.xml"/>
    </output>

    <time>
        <begin value="0"/>
        <end value="3600.0"/>
    </time>

    <report>
        <no-warnings value="true"/>
        <ignore-errors value="true"/>
        <no-step-log value="true"/>
    </report>

</configuration>
-->

<routes xmlns:xsi="http://www.w3.org/2001/XMLSchema-instance" xsi:noNamespaceSchemaLocation="http://sumo.dlr.de/xsd/routes_file.xsd">
    <vehicle id="3" depart="1.20">
        <route edges="gneE0 gneE5"/>
    </vehicle>
    <vehicle id="4" depart="1.60">
        <route edges="-gneE11 -gneE9 -gneE4 -gneE1 gneE2"/>
    </vehicle>
    <vehicle id="7" depart="2.80">
        <route edges="-gneE16 -gneE12 -gneE9 -gneE4 -gneE1 gneE3"/>
    </vehicle>
    <vehicle id="8" depart="3.20">
        <route edges="gneE0"/>
    </vehicle>
    <vehicle id="9" depart="3.60">
        <route edges="-gneE3 gneE0 gneE5"/>
    </vehicle>
    <vehicle id="10" depart="4.00">
        <route edges="-gneE3"/>
    </vehicle>
    <vehicle id="15" depart="6.00">
        <route edges="-gneE1 gneE3 gneE6"/>
    </vehicle>
    <vehicle id="20" depart="8.00">
        <route edges="-gneE14 -gneE11 -gneE9 -gneE4 -gneE1 gneE3"/>
    </vehicle>
    <vehicle id="22" depart="8.80">
        <route edges="-gneE14 -gneE11 -gneE9 -gneE4 -gneE1"/>
    </vehicle>
    <vehicle id="23" depart="9.20">
        <route edges="-gneE7 -gneE2 gneE3"/>
    </vehicle>
    <vehicle id="26" depart="10.40">
        <route edges="-gneE12 -gneE9 -gneE4 -gneE1 gneE3"/>
    </vehicle>
    <vehicle id="27" depart="10.80">
        <route edges="gneE1 gneE4 gneE9 gneE10"/>
    </vehicle>
    <vehicle id="29" depart="11.60">
        <route edges="-gneE0"/>
    </vehicle>
    <vehicle id="32" depart="12.80">
        <route edges="-gneE5 -gneE0 gneE1 gneE4 gneE9 gneE11"/>
    </vehicle>
    <vehicle id="36" depart="14.40">
        <route edges="-gneE12 -gneE9 -gneE4 -gneE1 gneE2 gneE7"/>
    </vehicle>
    <vehicle id="41" depart="16.40">
        <route edges="-gneE9 -gneE4"/>
    </vehicle>
    <vehicle id="51" depart="20.40">
        <route edges="-gneE3 gneE0"/>
    </vehicle>
    <vehicle id="52" depart="20.80">
        <route edges="-gneE14 -gneE11"/>
    </vehicle>
    <vehicle id="57" depart="22.80">
        <route edges="-gneE11 -gneE9 -gneE4"/>
    </vehicle>
    <vehicle id="61" depart="24.40">
        <route edges="-gneE3 gneE0 gneE5"/>
    </vehicle>
    <vehicle id="62" depart="24.80">
        <route edges="-gneE14 -gneE11"/>
    </vehicle>
    <vehicle id="74" depart="29.60">
        <route edges="-gneE12 -gneE9 -gneE4 -gneE1 gneE2"/>
    </vehicle>
    <vehicle id="75" depart="30.00">
        <route edges="-gneE7 -gneE2 gneE0"/>
    </vehicle>
    <vehicle id="76" depart="30.40">
        <route edges="gneE9 gneE11 gneE14"/>
    </vehicle>
    <vehicle id="77" depart="30.80">
        <route edges="-gneE16 -gneE12 -gneE9 -gneE4 -gneE1 gneE3 gneE6"/>
    </vehicle>
    <vehicle id="78" depart="31.20">
        <route edges="-gneE5 -gneE0 gneE1 gneE4 gneE9 gneE11"/>
    </vehicle>
    <vehicle id="85" depart="34.00">
        <route edges="-gneE6 -gneE3 gneE1 gneE4"/>
    </vehicle>
    <vehicle id="87" depart="34.80">
        <route edges="gneE1 gneE4"/>
    </vehicle>
    <vehicle id="89" depart="35.60">
        <route edges="gneE12"/>
    </vehicle>
    <vehicle id="91" depart="36.40">
        <route edges="-gneE6 -gneE3 gneE1 gneE4 gneE9 gneE10 gneE13"/>
    </vehicle>
    <vehicle id="98" depart="39.20">
        <route edges="-gneE3 gneE1 gneE4 gneE9 gneE11 gneE14"/>
    </vehicle>
    <vehicle id="105" depart="42.00">
        <route edges="-gneE14 -gneE11"/>
    </vehicle>
    <vehicle id="108" depart="43.20">
        <route edges="-gneE7 -gneE2 gneE0 gneE5"/>
    </vehicle>
    <vehicle id="109" depart="43.60">
        <route edges="-gneE11 -gneE9 -gneE4 -gneE1 gneE2"/>
    </vehicle>
    <vehicle id="110" depart="44.00">
        <route edges="-gneE2 gneE0"/>
    </vehicle>
    <vehicle id="111" depart="44.40">
        <route edges="-gneE12 -gneE9 -gneE4"/>
    </vehicle>
    <vehicle id="112" depart="44.80">
        <route edges="gneE10"/>
    </vehicle>
    <vehicle id="121" depart="48.40">
        <route edges="gneE9"/>
    </vehicle>
    <vehicle id="125" depart="50.00">
        <route edges="-gneE0 gneE1 gneE4"/>
    </vehicle>
    <vehicle id="127" depart="50.80">
        <route edges="-gneE0 gneE1 gneE4 gneE9"/>
    </vehicle>
    <vehicle id="128" depart="51.20">
        <route edges="gneE1 gneE4 gneE9"/>
    </vehicle>
    <vehicle id="138" depart="55.20">
        <route edges="-gneE11 -gneE9 -gneE4 -gneE1"/>
    </vehicle>
    <vehicle id="149" depart="59.60">
        <route edges="-gneE16 -gneE12 gneE10"/>
    </vehicle>
    <vehicle id="151" depart="60.40">
        <route edges="-gneE16 -gneE12 -gneE9 -gneE4 -gneE1 gneE3 gneE6"/>
    </vehicle>
    <vehicle id="154" depart="61.60">
        <route edges="-gneE3 gneE1 gneE4"/>
    </vehicle>
    <vehicle id="155" depart="62.00">
        <route edges="gneE1 gneE4"/>
    </vehicle>
    <vehicle id="157" depart="62.80">
        <route edges="-gneE10 gneE12 gneE16"/>
    </vehicle>
    <vehicle id="159" depart="63.60">
        <route edges="-gneE16 -gneE12 gneE10"/>
    </vehicle>
    <vehicle id="160" depart="64.00">
        <route edges="-gneE16 -gneE12 -gneE9 -gneE4 -gneE1 gneE3"/>
    </vehicle>
    <vehicle id="161" depart="64.40">
        <route edges="-gneE6 -gneE3 gneE1"/>
    </vehicle>
    <vehicle id="164" depart="65.60">
        <route edges="-gneE3 gneE1"/>
    </vehicle>
    <vehicle id="165" depart="66.00">
        <route edges="gneE9 gneE11 gneE14"/>
    </vehicle>
    <vehicle id="171" depart="68.40">
        <route edges="gneE4 gneE9 gneE10"/>
    </vehicle>
    <vehicle id="177" depart="70.80">
        <route edges="-gneE11 gneE12"/>
    </vehicle>
    <vehicle id="179" depart="71.60">
        <route edges="gneE11"/>
    </vehicle>
    <vehicle id="184" depart="73.60">
        <route edges="-gneE6 -gneE3 gneE1 gneE4"/>
    </vehicle>
    <vehicle id="187" depart="74.80">
        <route edges="gneE1 gneE4"/>
    </vehicle>
    <vehicle id="194" depart="77.60">
        <route edges="gneE4 gneE9"/>
    </vehicle>
    <vehicle id="195" depart="78.00">
        <route edges="-gneE10 gneE12"/>
    </vehicle>
    <vehicle id="198" depart="79.20">
        <route edges="-gneE1"/>
    </vehicle>
    <vehicle id="201" depart="80.40">
        <route edges="-gneE11 -gneE9 -gneE4 -gneE1 gneE2 gneE7"/>
    </vehicle>
    <vehicle id="211" depart="84.40">
        <route edges="-gneE16 -gneE12 -gneE9 -gneE4 -gneE1"/>
    </vehicle>
    <vehicle id="214" depart="85.60">
        <route edges="-gneE3 gneE0 gneE5"/>
    </vehicle>
    <vehicle id="220" depart="88.00">
        <route edges="-gneE12 -gneE9 -gneE4 -gneE1"/>
    </vehicle>
    <vehicle id="224" depart="89.60">
        <route edges="-gneE3 gneE0 gneE5"/>
    </vehicle>
    <vehicle id="228" depart="91.20">
        <route edges="-gneE16 -gneE12 -gneE9 -gneE4 -gneE1 gneE2 gneE7"/>
    </vehicle>
    <vehicle id="230" depart="92.00">
        <route edges="-gneE4 -gneE1 gneE2"/>
    </vehicle>
    <vehicle id="244" depart="97.60">
        <route edges="-gneE5 -gneE0"/>
    </vehicle>
    <vehicle id="247" depart="98.80">
        <route edges="-gneE13 -gneE10"/>
    </vehicle>
    <vehicle id="250" depart="100.00">
        <route edges="-gneE0"/>
    </vehicle>
    <vehicle id="251" depart="100.40">
        <route edges="-gneE0 gneE1"/>
    </vehicle>
    <vehicle id="254" depart="101.60">
        <route edges="-gneE3 gneE1 gneE4 gneE9 gneE10 gneE13"/>
    </vehicle>
    <vehicle id="255" depart="102.00">
        <route edges="-gneE2 gneE0"/>
    </vehicle>
    <vehicle id="259" depart="103.60">
        <route edges="-gneE6 -gneE3 gneE1 gneE4 gneE9 gneE11"/>
    </vehicle>
    <vehicle id="263" depart="105.20">
        <route edges="gneE4 gneE9 gneE11"/>
    </vehicle>
    <vehicle id="265" depart="106.00">
        <route edges="-gneE1 gneE3 gneE6"/>
    </vehicle>
    <vehicle id="268" depart="107.20">
        <route edges="-gneE0 gneE1 gneE4 gneE9 gneE10"/>
    </vehicle>
    <vehicle id="269" depart="107.60">
        <route edges="-gneE16 -gneE12 -gneE9 -gneE4 -gneE1"/>
    </vehicle>
    <vehicle id="273" depart="109.20">
        <route edges="-gneE16 -gneE12 gneE10 gneE13"/>
    </vehicle>
    <vehicle id="278" depart="111.20">
        <route edges="-gneE12 -gneE9 -gneE4 -gneE1 gneE3 gneE6"/>
    </vehicle>
    <vehicle id="281" depart="112.40">
        <route edges="-gneE16 -gneE12 -gneE9 -gneE4 -gneE1 gneE3"/>
    </vehicle>
    <vehicle id="283" depart="113.20">
        <route edges="-gneE2"/>
    </vehicle>
    <vehicle id="284" depart="113.60">
        <route edges="-gneE9 -gneE4 -gneE1 gneE2"/>
    </vehicle>
    <vehicle id="286" depart="114.40">
        <route edges="-gneE5 -gneE0 gneE1 gneE4"/>
    </vehicle>
    <vehicle id="288" depart="115.20">
        <route edges="-gneE16 -gneE12 gneE10 gneE13"/>
    </vehicle>
    <vehicle id="290" depart="116.00">
        <route edges="-gneE9 -gneE4 -gneE1 gneE3"/>
    </vehicle>
    <vehicle id="291" depart="116.40">
        <route edges="gneE0 gneE5"/>
    </vehicle>
    <vehicle id="294" depart="117.60">
        <route edges="gneE1 gneE4 gneE9 gneE11 gneE14"/>
    </vehicle>
    <vehicle id="297" depart="118.80">
        <route edges="-gneE13 -gneE10 gneE11"/>
    </vehicle>
    <vehicle id="298" depart="119.20">
        <route edges="-gneE5 -gneE0 gneE2 gneE7"/>
    </vehicle>
    <vehicle id="299" depart="119.60">
        <route edges="gneE4"/>
    </vehicle>
    <vehicle id="303" depart="121.20">
        <route edges="-gneE0 gneE1 gneE4"/>
    </vehicle>
    <vehicle id="305" depart="122.00">
        <route edges="gneE9 gneE11"/>
    </vehicle>
    <vehicle id="306" depart="122.40">
        <route edges="-gneE2 gneE0 gneE5"/>
    </vehicle>
    <vehicle id="308" depart="123.20">
        <route edges="-gneE14 -gneE11 -gneE9 -gneE4"/>
    </vehicle>
    <vehicle id="309" depart="123.60">
        <route edges="-gneE9 -gneE4 -gneE1 gneE2 gneE7"/>
    </vehicle>
    <vehicle id="310" depart="124.00">
        <route edges="-gneE4"/>
    </vehicle>
    <vehicle id="314" depart="125.60">
        <route edges="-gneE6 -gneE3 gneE1 gneE4 gneE9"/>
    </vehicle>
    <vehicle id="316" depart="126.40">
        <route edges="-gneE4"/>
    </vehicle>
    <vehicle id="317" depart="126.80">
        <route edges="gneE3"/>
    </vehicle>
    <vehicle id="318" depart="127.20">
        <route edges="gneE4 gneE9 gneE11"/>
    </vehicle>
    <vehicle id="320" depart="128.00">
        <route edges="gneE10 gneE13"/>
    </vehicle>
    <vehicle id="322" depart="128.80">
        <route edges="-gneE16 -gneE12 gneE10 gneE13"/>
    </vehicle>
    <vehicle id="329" depart="131.60">
        <route edges="-gneE4 -gneE1 gneE2 gneE7"/>
    </vehicle>
    <vehicle id="335" depart="134.00">
        <route edges="-gneE12 gneE10"/>
    </vehicle>
    <vehicle id="336" depart="134.40">
        <route edges="-gneE11 -gneE9 -gneE4 -gneE1 gneE3"/>
    </vehicle>
    <vehicle id="340" depart="136.00">
        <route edges="-gneE9 -gneE4 -gneE1 gneE3 gneE6"/>
    </vehicle>
    <vehicle id="341" depart="136.40">
        <route edges="-gneE0 gneE2"/>
    </vehicle>
    <vehicle id="342" depart="136.80">
        <route edges="-gneE14 -gneE11 gneE12"/>
    </vehicle>
    <vehicle id="343" depart="137.20">
        <route edges="-gneE5 -gneE0 gneE1 gneE4 gneE9 gneE10 gneE13"/>
    </vehicle>
    <vehicle id="345" depart="138.00">
        <route edges="gneE9"/>
    </vehicle>
    <vehicle id="347" depart="138.80">
        <route edges="-gneE0 gneE2 gneE7"/>
    </vehicle>
    <vehicle id="355" depart="142.00">
        <route edges="-gneE11 -gneE9 -gneE4 -gneE1 gneE2"/>
    </vehicle>
    <vehicle id="357" depart="142.80">
        <route edges="gneE11"/>
    </vehicle>
    <vehicle id="360" depart="144.00">
        <route edges="-gneE10 gneE12 gneE16"/>
    </vehicle>
    <vehicle id="373" depart="149.20">
        <route edges="gneE1 gneE4 gneE9 gneE10"/>
    </vehicle>
    <vehicle id="380" depart="152.00">
        <route edges="-gneE9 -gneE4 -gneE1 gneE2 gneE7"/>
    </vehicle>
    <vehicle id="384" depart="153.60">
        <route edges="-gneE5 -gneE0 gneE1 gneE4 gneE9 gneE10"/>
    </vehicle>
    <vehicle id="401" depart="160.40">
        <route edges="-gneE6 -gneE3 gneE1 gneE4 gneE9"/>
    </vehicle>
    <vehicle id="404" depart="161.60">
        <route edges="-gneE5 -gneE0 gneE1 gneE4 gneE9"/>
    </vehicle>
    <vehicle id="405" depart="162.00">
        <route edges="-gneE11 -gneE9 -gneE4 -gneE1 gneE3 gneE6"/>
    </vehicle>
    <vehicle id="410" depart="164.00">
        <route edges="gneE2"/>
    </vehicle>
    <vehicle id="411" depart="164.40">
        <route edges="gneE11"/>
    </vehicle>
    <vehicle id="414" depart="165.60">
        <route edges="-gneE6 -gneE3 gneE1 gneE4 gneE9 gneE10"/>
    </vehicle>
    <vehicle id="417" depart="166.80">
        <route edges="-gneE7 -gneE2 gneE3 gneE6"/>
    </vehicle>
    <vehicle id="430" depart="172.00">
        <route edges="-gneE10 gneE12"/>
    </vehicle>
    <vehicle id="431" depart="172.40">
        <route edges="gneE3 gneE6"/>
    </vehicle>
    <vehicle id="435" depart="174.00">
        <route edges="-gneE0 gneE1 gneE4 gneE9"/>
    </vehicle>
    <vehicle id="439" depart="175.60">
        <route edges="-gneE11 gneE12 gneE16"/>
    </vehicle>
    <vehicle id="441" depart="176.40">
        <route edges="gneE1 gneE4 gneE9 gneE11 gneE14"/>
    </vehicle>
    <vehicle id="442" depart="176.80">
        <route edges="gneE3 gneE6"/>
    </vehicle>
    <vehicle id="444" depart="177.60">
        <route edges="-gneE2"/>
    </vehicle>
    <vehicle id="445" depart="178.00">
        <route edges="-gneE6 -gneE3 gneE1 gneE4 gneE9 gneE10"/>
    </vehicle>
    <vehicle id="449" depart="179.60">
        <route edges="-gneE0 gneE2 gneE7"/>
    </vehicle>
    <vehicle id="455" depart="182.00">
        <route edges="-gneE10 gneE12"/>
    </vehicle>
    <vehicle id="456" depart="182.40">
        <route edges="-gneE14 -gneE11 -gneE9 -gneE4"/>
    </vehicle>
    <vehicle id="466" depart="186.40">
        <route edges="-gneE7 -gneE2 gneE3"/>
    </vehicle>
    <vehicle id="474" depart="189.60">
        <route edges="-gneE6 -gneE3 gneE1 gneE4 gneE9 gneE10 gneE13"/>
    </vehicle>
    <vehicle id="477" depart="190.80">
        <route edges="gneE12 gneE16"/>
    </vehicle>
    <vehicle id="481" depart="192.40">
        <route edges="gneE1 gneE4 gneE9 gneE10 gneE13"/>
    </vehicle>
    <vehicle id="483" depart="193.20">
        <route edges="-gneE2"/>
    </vehicle>
    <vehicle id="486" depart="194.40">
        <route edges="-gneE5 -gneE0 gneE1 gneE4"/>
    </vehicle>
    <vehicle id="487" depart="194.80">
        <route edges="-gneE14 -gneE11 -gneE9 -gneE4 -gneE1 gneE3"/>
    </vehicle>
    <vehicle id="491" depart="196.40">
        <route edges="gneE2"/>
    </vehicle>
    <vehicle id="498" depart="199.20">
        <route edges="-gneE14 -gneE11 gneE12"/>
    </vehicle>
    <vehicle id="502" depart="200.80">
        <route edges="-gneE9 -gneE4"/>
    </vehicle>
    <vehicle id="503" depart="201.20">
        <route edges="-gneE4 -gneE1 gneE3"/>
    </vehicle>
    <vehicle id="507" depart="202.80">
        <route edges="gneE1 gneE4 gneE9 gneE11 gneE14"/>
    </vehicle>
    <vehicle id="517" depart="206.80">
        <route edges="gneE2 gneE7"/>
    </vehicle>
    <vehicle id="519" depart="207.60">
        <route edges="-gneE0 gneE2 gneE7"/>
    </vehicle>
    <vehicle id="527" depart="210.80">
        <route edges="-gneE1 gneE3 gneE6"/>
    </vehicle>
    <vehicle id="536" depart="214.40">
        <route edges="-gneE3 gneE1 gneE4 gneE9 gneE10"/>
    </vehicle>
    <vehicle id="538" depart="215.20">
        <route edges="-gneE16 -gneE12 -gneE9 -gneE4 -gneE1 gneE2"/>
    </vehicle>
    <vehicle id="548" depart="219.20">
        <route edges="-gneE2 gneE0"/>
    </vehicle>
    <vehicle id="550" depart="220.00">
        <route edges="gneE1 gneE4 gneE9"/>
    </vehicle>
    <vehicle id="555" depart="222.00">
        <route edges="gneE1 gneE4 gneE9 gneE10 gneE13"/>
    </vehicle>
    <vehicle id="557" depart="222.80">
        <route edges="-gneE16 -gneE12 -gneE9 -gneE4 -gneE1 gneE2 gneE7"/>
    </vehicle>
    <vehicle id="559" depart="223.60">
        <route edges="-gneE13 -gneE10 gneE11 gneE14"/>
    </vehicle>
    <vehicle id="562" depart="224.80">
        <route edges="-gneE7 -gneE2"/>
    </vehicle>
    <vehicle id="565" depart="226.00">
        <route edges="-gneE12 -gneE9 -gneE4 -gneE1"/>
    </vehicle>
    <vehicle id="566" depart="226.40">
        <route edges="-gneE11 -gneE9 -gneE4 -gneE1 gneE2 gneE7"/>
    </vehicle>
    <vehicle id="567" depart="226.80">
        <route edges="gneE11"/>
    </vehicle>
    <vehicle id="577" depart="230.80">
        <route edges="-gneE5 -gneE0 gneE1 gneE4 gneE9 gneE11 gneE14"/>
    </vehicle>
    <vehicle id="578" depart="231.20">
        <route edges="-gneE16 -gneE12"/>
    </vehicle>
    <vehicle id="581" depart="232.40">
        <route edges="-gneE14 -gneE11 -gneE9 -gneE4 -gneE1"/>
    </vehicle>
    <vehicle id="582" depart="232.80">
        <route edges="-gneE3 gneE1 gneE4 gneE9 gneE11"/>
    </vehicle>
    <vehicle id="583" depart="233.20">
        <route edges="-gneE3 gneE1"/>
    </vehicle>
    <vehicle id="585" depart="234.00">
        <route edges="gneE9 gneE10 gneE13"/>
    </vehicle>
    <vehicle id="593" depart="237.20">
        <route edges="-gneE7 -gneE2 gneE0 gneE5"/>
    </vehicle>
    <vehicle id="600" depart="240.00">
        <route edges="gneE4 gneE9 gneE10"/>
    </vehicle>
    <vehicle id="606" depart="242.40">
        <route edges="-gneE3 gneE1 gneE4 gneE9 gneE10 gneE13"/>
    </vehicle>
    <vehicle id="608" depart="243.20">
        <route edges="-gneE14 -gneE11 -gneE9"/>
    </vehicle>
    <vehicle id="610" depart="244.00">
        <route edges="-gneE5 -gneE0 gneE1 gneE4 gneE9 gneE10"/>
    </vehicle>
    <vehicle id="612" depart="244.80">
        <route edges="gneE9 gneE10"/>
    </vehicle>
    <vehicle id="613" depart="245.20">
        <route edges="gneE10"/>
    </vehicle>
    <vehicle id="618" depart="247.20">
        <route edges="-gneE2 gneE3 gneE6"/>
    </vehicle>
    <vehicle id="619" depart="247.60">
        <route edges="-gneE14 -gneE11 -gneE9 -gneE4 -gneE1 gneE2 gneE7"/>
    </vehicle>
    <vehicle id="623" depart="249.20">
        <route edges="gneE1 gneE4 gneE9 gneE11"/>
    </vehicle>
    <vehicle id="625" depart="250.00">
        <route edges="gneE1 gneE4 gneE9 gneE10 gneE13"/>
    </vehicle>
    <vehicle id="626" depart="250.40">
        <route edges="-gneE14 -gneE11 -gneE9 -gneE4 -gneE1 gneE3 gneE6"/>
    </vehicle>
    <vehicle id="630" depart="252.00">
        <route edges="-gneE9 -gneE4 -gneE1 gneE3 gneE6"/>
    </vehicle>
    <vehicle id="643" depart="257.20">
        <route edges="-gneE16 -gneE12 -gneE9 -gneE4 -gneE1 gneE3 gneE6"/>
    </vehicle>
    <vehicle id="644" depart="257.60">
        <route edges="-gneE5 -gneE0 gneE2 gneE7"/>
    </vehicle>
    <vehicle id="651" depart="260.40">
        <route edges="-gneE5 -gneE0 gneE2"/>
    </vehicle>
    <vehicle id="652" depart="260.80">
        <route edges="-gneE3 gneE1 gneE4 gneE9 gneE10"/>
    </vehicle>
    <vehicle id="656" depart="262.40">
        <route edges="-gneE1 gneE2"/>
    </vehicle>
    <vehicle id="660" depart="264.00">
        <route edges="-gneE16 -gneE12 -gneE9 -gneE4 -gneE1 gneE3 gneE6"/>
    </vehicle>
    <vehicle id="673" depart="269.20">
        <route edges="-gneE4 -gneE1 gneE2 gneE7"/>
    </vehicle>
    <vehicle id="684" depart="273.60">
        <route edges="-gneE0 gneE1 gneE4 gneE9 gneE10 gneE13"/>
    </vehicle>
    <vehicle id="689" depart="275.60">
        <route edges="-gneE16 -gneE12 -gneE9 -gneE4 -gneE1 gneE2 gneE7"/>
    </vehicle>
    <vehicle id="695" depart="278.00">
        <route edges="-gneE12 -gneE9 -gneE4 -gneE1 gneE2 gneE7"/>
    </vehicle>
    <vehicle id="696" depart="278.40">
        <route edges="-gneE4"/>
    </vehicle>
    <vehicle id="699" depart="279.60">
        <route edges="-gneE7 -gneE2 gneE3 gneE6"/>
    </vehicle>
    <vehicle id="702" depart="280.80">
        <route edges="-gneE5 -gneE0 gneE1"/>
    </vehicle>
    <vehicle id="709" depart="283.60">
        <route edges="-gneE7 -gneE2 gneE3"/>
    </vehicle>
    <vehicle id="711" depart="284.40">
        <route edges="-gneE16 -gneE12 -gneE9 -gneE4 -gneE1 gneE3"/>
    </vehicle>
    <vehicle id="712" depart="284.80">
        <route edges="-gneE2 gneE3"/>
    </vehicle>
    <vehicle id="713" depart="285.20">
        <route edges="gneE11"/>
    </vehicle>
    <vehicle id="717" depart="286.80">
        <route edges="-gneE7 -gneE2 gneE0"/>
    </vehicle>
    <vehicle id="718" depart="287.20">
        <route edges="-gneE16 -gneE12 -gneE9 -gneE4 -gneE1 gneE2"/>
    </vehicle>
    <vehicle id="719" depart="287.60">
        <route edges="-gneE6 -gneE3 gneE1 gneE4 gneE9 gneE10 gneE13"/>
    </vehicle>
    <vehicle id="720" depart="288.00">
        <route edges="gneE4 gneE9"/>
    </vehicle>
    <vehicle id="722" depart="288.80">
        <route edges="gneE2"/>
    </vehicle>
    <vehicle id="727" depart="290.80">
        <route edges="-gneE3 gneE1"/>
    </vehicle>
    <vehicle id="728" depart="291.20">
        <route edges="-gneE5 -gneE0"/>
    </vehicle>
    <vehicle id="731" depart="292.40">
        <route edges="gneE10"/>
    </vehicle>
    <vehicle id="733" depart="293.20">
        <route edges="-gneE0 gneE1 gneE4 gneE9"/>
    </vehicle>
    <vehicle id="742" depart="296.80">
        <route edges="-gneE5 -gneE0 gneE2 gneE7"/>
    </vehicle>
    <vehicle id="748" depart="299.20">
        <route edges="-gneE9 -gneE4 -gneE1 gneE2 gneE7"/>
    </vehicle>
    <vehicle id="752" depart="300.80">
        <route edges="-gneE12 gneE10"/>
    </vehicle>
    <vehicle id="756" depart="302.40">
        <route edges="-gneE6 -gneE3 gneE1"/>
    </vehicle>
    <vehicle id="758" depart="303.20">
        <route edges="-gneE10 gneE11"/>
    </vehicle>
    <vehicle id="762" depart="304.80">
        <route edges="-gneE12 -gneE9 -gneE4 -gneE1"/>
    </vehicle>
    <vehicle id="763" depart="305.20">
        <route edges="-gneE16 -gneE12 gneE10 gneE13"/>
    </vehicle>
    <vehicle id="766" depart="306.40">
        <route edges="-gneE10"/>
    </vehicle>
    <vehicle id="767" depart="306.80">
        <route edges="gneE4 gneE9"/>
    </vehicle>
    <vehicle id="768" depart="307.20">
        <route edges="-gneE0 gneE2"/>
    </vehicle>
    <vehicle id="771" depart="308.40">
        <route edges="gneE1 gneE4 gneE9"/>
    </vehicle>
    <vehicle id="773" depart="309.20">
        <route edges="-gneE1 gneE2"/>
    </vehicle>
    <vehicle id="777" depart="310.80">
        <route edges="-gneE11 gneE12 gneE16"/>
    </vehicle>
    <vehicle id="781" depart="312.40">
        <route edges="-gneE11"/>
    </vehicle>
    <vehicle id="786" depart="314.40">
        <route edges="-gneE9 -gneE4 -gneE1 gneE2"/>
    </vehicle>
    <vehicle id="787" depart="314.80">
        <route edges="-gneE0 gneE1 gneE4 gneE9 gneE11"/>
    </vehicle>
    <vehicle id="792" depart="316.80">
        <route edges="-gneE9 -gneE4 -gneE1"/>
    </vehicle>
    <vehicle id="794" depart="317.60">
        <route edges="-gneE6 -gneE3 gneE1 gneE4 gneE9 gneE10"/>
    </vehicle>
    <vehicle id="799" depart="319.60">
        <route edges="-gneE9 -gneE4 -gneE1"/>
    </vehicle>
    <vehicle id="800" depart="320.00">
        <route edges="-gneE11 -gneE9 -gneE4"/>
    </vehicle>
    <vehicle id="805" depart="322.00">
        <route edges="-gneE9 -gneE4 -gneE1"/>
    </vehicle>
    <vehicle id="807" depart="322.80">
        <route edges="-gneE11 -gneE9 -gneE4"/>
    </vehicle>
    <vehicle id="809" depart="323.60">
        <route edges="gneE11 gneE14"/>
    </vehicle>
    <vehicle id="813" depart="325.20">
        <route edges="-gneE14 -gneE11 gneE12"/>
    </vehicle>
    <vehicle id="814" depart="325.60">
        <route edges="gneE11 gneE14"/>
    </vehicle>
    <vehicle id="815" depart="326.00">
        <route edges="-gneE14 -gneE11 -gneE9 -gneE4 -gneE1"/>
    </vehicle>
    <vehicle id="816" depart="326.40">
        <route edges="gneE11 gneE14"/>
    </vehicle>
    <vehicle id="822" depart="328.80">
        <route edges="-gneE0 gneE1 gneE4 gneE9 gneE11"/>
    </vehicle>
    <vehicle id="823" depart="329.20">
        <route edges="-gneE6 -gneE3 gneE1 gneE4 gneE9"/>
    </vehicle>
    <vehicle id="824" depart="329.60">
        <route edges="-gneE6 -gneE3 gneE1 gneE4 gneE9 gneE11 gneE14"/>
    </vehicle>
    <vehicle id="832" depart="332.80">
        <route edges="-gneE0 gneE1"/>
    </vehicle>
    <vehicle id="834" depart="333.60">
        <route edges="-gneE11 -gneE9 -gneE4 -gneE1 gneE2 gneE7"/>
    </vehicle>
    <vehicle id="836" depart="334.40">
        <route edges="-gneE1 gneE3"/>
    </vehicle>
    <vehicle id="845" depart="338.00">
        <route edges="-gneE14 -gneE11 -gneE9 -gneE4 -gneE1 gneE3"/>
    </vehicle>
    <vehicle id="848" depart="339.20">
        <route edges="-gneE13 -gneE10 gneE12 gneE16"/>
    </vehicle>
    <vehicle id="850" depart="340.00">
        <route edges="-gneE12 -gneE9 -gneE4"/>
    </vehicle>
    <vehicle id="851" depart="340.40">
        <route edges="-gneE6 -gneE3 gneE1"/>
    </vehicle>
    <vehicle id="852" depart="340.80">
        <route edges="-gneE16 -gneE12 -gneE9"/>
    </vehicle>
    <vehicle id="857" depart="342.80">
        <route edges="-gneE9 -gneE4 -gneE1 gneE2 gneE7"/>
    </vehicle>
    <vehicle id="862" depart="344.80">
        <route edges="-gneE9 -gneE4 -gneE1 gneE3"/>
    </vehicle>
    <vehicle id="865" depart="346.00">
        <route edges="-gneE1 gneE3"/>
    </vehicle>
    <vehicle id="869" depart="347.60">
        <route edges="-gneE11 -gneE9 -gneE4 -gneE1 gneE2 gneE7"/>
    </vehicle>
    <vehicle id="877" depart="350.80">
        <route edges="gneE9 gneE11 gneE14"/>
    </vehicle>
    <vehicle id="880" depart="352.00">
        <route edges="-gneE5 -gneE0 gneE1 gneE4 gneE9 gneE10 gneE13"/>
    </vehicle>
    <vehicle id="886" depart="354.40">
        <route edges="-gneE1 gneE3 gneE6"/>
    </vehicle>
    <vehicle id="892" depart="356.80">
        <route edges="-gneE7 -gneE2 gneE3"/>
    </vehicle>
    <vehicle id="895" depart="358.00">
        <route edges="-gneE6 -gneE3 gneE1 gneE4"/>
    </vehicle>
    <vehicle id="898" depart="359.20">
        <route edges="gneE0 gneE5"/>
    </vehicle>
    <vehicle id="903" depart="361.20">
        <route edges="-gneE16 -gneE12 -gneE9 -gneE4 -gneE1"/>
    </vehicle>
    <vehicle id="911" depart="364.40">
        <route edges="-gneE5 -gneE0 gneE1 gneE4 gneE9 gneE11 gneE14"/>
    </vehicle>
    <vehicle id="912" depart="364.80">
        <route edges="-gneE7 -gneE2 gneE0 gneE5"/>
    </vehicle>
    <vehicle id="913" depart="365.20">
        <route edges="-gneE3 gneE1"/>
    </vehicle>
    <vehicle id="915" depart="366.00">
        <route edges="-gneE16 -gneE12 -gneE9 -gneE4 -gneE1 gneE3"/>
    </vehicle>
    <vehicle id="916" depart="366.40">
        <route edges="gneE1 gneE4 gneE9 gneE10"/>
    </vehicle>
    <vehicle id="931" depart="372.40">
        <route edges="gneE4 gneE9 gneE10 gneE13"/>
    </vehicle>
    <vehicle id="932" depart="372.80">
        <route edges="-gneE1 gneE2 gneE7"/>
    </vehicle>
    <vehicle id="941" depart="376.40">
        <route edges="-gneE11 gneE12 gneE16"/>
    </vehicle>
    <vehicle id="943" depart="377.20">
        <route edges="gneE0 gneE5"/>
    </vehicle>
    <vehicle id="948" depart="379.20">
        <route edges="-gneE0 gneE1 gneE4 gneE9 gneE10"/>
    </vehicle>
    <vehicle id="949" depart="379.60">
        <route edges="-gneE4 -gneE1 gneE2 gneE7"/>
    </vehicle>
    <vehicle id="952" depart="380.80">
        <route edges="-gneE3 gneE1 gneE4 gneE9 gneE11"/>
    </vehicle>
    <vehicle id="955" depart="382.00">
        <route edges="-gneE11 -gneE9"/>
    </vehicle>
    <vehicle id="958" depart="383.20">
        <route edges="-gneE12 -gneE9 -gneE4"/>
    </vehicle>
    <vehicle id="963" depart="385.20">
        <route edges="gneE2"/>
    </vehicle>
    <vehicle id="970" depart="388.00">
        <route edges="-gneE2 gneE0 gneE5"/>
    </vehicle>
    <vehicle id="971" depart="388.40">
        <route edges="gneE12 gneE16"/>
    </vehicle>
    <vehicle id="972" depart="388.80">
        <route edges="-gneE6 -gneE3 gneE1 gneE4 gneE9 gneE10"/>
    </vehicle>
    <vehicle id="974" depart="389.60">
        <route edges="-gneE4 -gneE1 gneE3 gneE6"/>
    </vehicle>
    <vehicle id="976" depart="390.40">
        <route edges="-gneE7 -gneE2"/>
    </vehicle>
    <vehicle id="979" depart="391.60">
        <route edges="gneE2 gneE7"/>
    </vehicle>
    <vehicle id="980" depart="392.00">
        <route edges="-gneE5 -gneE0 gneE2"/>
    </vehicle>
    <vehicle id="983" depart="393.20">
        <route edges="gneE11"/>
    </vehicle>
    <vehicle id="987" depart="394.80">
        <route edges="-gneE9 -gneE4 -gneE1 gneE2 gneE7"/>
    </vehicle>
    <vehicle id="989" depart="395.60">
        <route edges="-gneE9"/>
    </vehicle>
    <vehicle id="993" depart="397.20">
        <route edges="gneE10"/>
    </vehicle>
    <vehicle id="994" depart="397.60">
        <route edges="-gneE3 gneE0 gneE5"/>
    </vehicle>