<?xml version="1.0" encoding="UTF-8"?>

<!-- generated on 2021-09-29 19:30:35 by Eclipse SUMO duarouter Version 1.9.2
<configuration xmlns:xsi="http://www.w3.org/2001/XMLSchema-instance" xsi:noNamespaceSchemaLocation="http://sumo.dlr.de/xsd/duarouterConfiguration.xsd">

    <input>
        <net-file value="/home/sonic/Desktop/nets/case03/intersection.net.xml"/>
        <route-files value="trips.trips.xml"/>
    </input>

    <output>
        <output-file value="intersection_random6.rou.xml"/>
        <alternatives-output value="intersection_random6.rou.alt.xml"/>
    </output>

    <time>
        <begin value="0"/>
        <end value="3600.0"/>
    </time>

    <report>
        <no-warnings value="true"/>
        <ignore-errors value="true"/>
        <no-step-log value="true"/>
    </report>

</configuration>
-->

<routes xmlns:xsi="http://www.w3.org/2001/XMLSchema-instance" xsi:noNamespaceSchemaLocation="http://sumo.dlr.de/xsd/routes_file.xsd">
    <vehicle id="15" depart="6.00">
        <route edges="-gneE4 -gneE1"/>
    </vehicle>
    <vehicle id="22" depart="8.80">
        <route edges="-gneE10 gneE11 gneE14"/>
    </vehicle>
    <vehicle id="24" depart="9.60">
        <route edges="-gneE3 gneE1 gneE4 gneE9 gneE10 gneE13"/>
    </vehicle>
    <vehicle id="27" depart="10.80">
        <route edges="-gneE9 -gneE4 -gneE1"/>
    </vehicle>
    <vehicle id="31" depart="12.40">
        <route edges="-gneE10"/>
    </vehicle>
    <vehicle id="34" depart="13.60">
        <route edges="-gneE6 -gneE3 gneE1 gneE4"/>
    </vehicle>
    <vehicle id="36" depart="14.40">
        <route edges="-gneE12 -gneE9 -gneE4"/>
    </vehicle>
    <vehicle id="41" depart="16.40">
        <route edges="-gneE14 -gneE11 -gneE9 -gneE4 -gneE1"/>
    </vehicle>
    <vehicle id="47" depart="18.80">
        <route edges="gneE9"/>
    </vehicle>
    <vehicle id="52" depart="20.80">
        <route edges="-gneE6 -gneE3 gneE1"/>
    </vehicle>
    <vehicle id="54" depart="21.60">
        <route edges="-gneE6 -gneE3 gneE1 gneE4 gneE9 gneE10 gneE13"/>
    </vehicle>
    <vehicle id="57" depart="22.80">
        <route edges="-gneE0 gneE1 gneE4 gneE9 gneE10"/>
    </vehicle>
    <vehicle id="59" depart="23.60">
        <route edges="gneE4 gneE9"/>
    </vehicle>
    <vehicle id="65" depart="26.00">
        <route edges="-gneE13 -gneE10 gneE11"/>
    </vehicle>
    <vehicle id="71" depart="28.40">
        <route edges="-gneE0 gneE2 gneE7"/>
    </vehicle>
    <vehicle id="80" depart="32.00">
        <route edges="-gneE7 -gneE2 gneE0"/>
    </vehicle>
    <vehicle id="83" depart="33.20">
        <route edges="-gneE5 -gneE0"/>
    </vehicle>
    <vehicle id="85" depart="34.00">
        <route edges="-gneE14 -gneE11 -gneE9 -gneE4 -gneE1 gneE3"/>
    </vehicle>
    <vehicle id="88" depart="35.20">
        <route edges="gneE2 gneE7"/>
    </vehicle>
    <vehicle id="89" depart="35.60">
        <route edges="-gneE3 gneE1 gneE4 gneE9 gneE10"/>
    </vehicle>
    <vehicle id="90" depart="36.00">
        <route edges="gneE1 gneE4"/>
    </vehicle>
    <vehicle id="93" depart="37.20">
        <route edges="gneE1"/>
    </vehicle>
    <vehicle id="95" depart="38.00">
        <route edges="-gneE1 gneE2"/>
    </vehicle>
    <vehicle id="103" depart="41.20">
        <route edges="-gneE3 gneE0 gneE5"/>
    </vehicle>
    <vehicle id="110" depart="44.00">
        <route edges="-gneE5 -gneE0 gneE1 gneE4 gneE9 gneE10 gneE13"/>
    </vehicle>
    <vehicle id="111" depart="44.40">
        <route edges="-gneE5 -gneE0 gneE1 gneE4 gneE9 gneE10 gneE13"/>
    </vehicle>
    <vehicle id="112" depart="44.80">
        <route edges="-gneE9 -gneE4 -gneE1 gneE2"/>
    </vehicle>
    <vehicle id="116" depart="46.40">
        <route edges="-gneE9 -gneE4 -gneE1"/>
    </vehicle>
    <vehicle id="123" depart="49.20">
        <route edges="gneE4 gneE9 gneE11 gneE14"/>
    </vehicle>
    <vehicle id="125" depart="50.00">
        <route edges="-gneE9 -gneE4 -gneE1 gneE2 gneE7"/>
    </vehicle>
    <vehicle id="131" depart="52.40">
        <route edges="-gneE0 gneE1"/>
    </vehicle>
    <vehicle id="135" depart="54.00">
        <route edges="-gneE3 gneE1 gneE4 gneE9 gneE10 gneE13"/>
    </vehicle>
    <vehicle id="136" depart="54.40">
        <route edges="-gneE6 -gneE3 gneE1"/>
    </vehicle>
    <vehicle id="145" depart="58.00">
        <route edges="-gneE13 -gneE10 gneE11"/>
    </vehicle>
    <vehicle id="148" depart="59.20">
        <route edges="gneE0 gneE5"/>
    </vehicle>
    <vehicle id="149" depart="59.60">
        <route edges="-gneE9 -gneE4"/>
    </vehicle>
    <vehicle id="152" depart="60.80">
        <route edges="-gneE6 -gneE3 gneE1 gneE4 gneE9 gneE10"/>
    </vehicle>
    <vehicle id="154" depart="61.60">
        <route edges="gneE4 gneE9"/>
    </vehicle>
    <vehicle id="157" depart="62.80">
        <route edges="-gneE16 -gneE12 -gneE9 -gneE4 -gneE1 gneE3"/>
    </vehicle>
    <vehicle id="160" depart="64.00">
        <route edges="-gneE9 -gneE4 -gneE1 gneE3"/>
    </vehicle>
    <vehicle id="161" depart="64.40">
        <route edges="-gneE3 gneE1 gneE4"/>
    </vehicle>
    <vehicle id="171" depart="68.40">
        <route edges="-gneE12 gneE10"/>
    </vehicle>
    <vehicle id="173" depart="69.20">
        <route edges="-gneE16 -gneE12 -gneE9 -gneE4"/>
    </vehicle>
    <vehicle id="177" depart="70.80">
        <route edges="gneE1 gneE4 gneE9"/>
    </vehicle>
    <vehicle id="180" depart="72.00">
        <route edges="-gneE16 -gneE12 -gneE9 -gneE4 -gneE1 gneE2 gneE7"/>
    </vehicle>
    <vehicle id="182" depart="72.80">
        <route edges="-gneE14 -gneE11 -gneE9 -gneE4 -gneE1"/>
    </vehicle>
    <vehicle id="183" depart="73.20">
        <route edges="-gneE2 gneE0 gneE5"/>
    </vehicle>
    <vehicle id="187" depart="74.80">
        <route edges="gneE2 gneE7"/>
    </vehicle>
    <vehicle id="188" depart="75.20">
        <route edges="gneE9 gneE11 gneE14"/>
    </vehicle>
    <vehicle id="189" depart="75.60">
        <route edges="-gneE16 -gneE12 -gneE9 -gneE4 -gneE1"/>
    </vehicle>
    <vehicle id="193" depart="77.20">
        <route edges="gneE1"/>
    </vehicle>
    <vehicle id="215" depart="86.00">
        <route edges="-gneE12 gneE10 gneE13"/>
    </vehicle>
    <vehicle id="220" depart="88.00">
        <route edges="-gneE1 gneE2 gneE7"/>
    </vehicle>
    <vehicle id="221" depart="88.40">
        <route edges="-gneE11 gneE12 gneE16"/>
    </vehicle>
    <vehicle id="223" depart="89.20">
        <route edges="-gneE6 -gneE3 gneE1 gneE4 gneE9 gneE10"/>
    </vehicle>
    <vehicle id="231" depart="92.40">
        <route edges="-gneE16 -gneE12 -gneE9 -gneE4 -gneE1 gneE3 gneE6"/>
    </vehicle>
    <vehicle id="236" depart="94.40">
        <route edges="-gneE10 gneE11"/>
    </vehicle>
    <vehicle id="255" depart="102.00">
        <route edges="-gneE5 -gneE0 gneE1 gneE4 gneE9 gneE11"/>
    </vehicle>
    <vehicle id="257" depart="102.80">
        <route edges="-gneE2 gneE0 gneE5"/>
    </vehicle>
    <vehicle id="260" depart="104.00">
        <route edges="-gneE6 -gneE3 gneE1 gneE4 gneE9 gneE11 gneE14"/>
    </vehicle>
    <vehicle id="262" depart="104.80">
        <route edges="gneE1 gneE4 gneE9"/>
    </vehicle>
    <vehicle id="272" depart="108.80">
        <route edges="-gneE0 gneE1 gneE4 gneE9 gneE11"/>
    </vehicle>
    <vehicle id="275" depart="110.00">
        <route edges="-gneE6 -gneE3"/>
    </vehicle>
    <vehicle id="276" depart="110.40">
        <route edges="-gneE16 -gneE12 -gneE9 -gneE4"/>
    </vehicle>
    <vehicle id="277" depart="110.80">
        <route edges="gneE12"/>
    </vehicle>
    <vehicle id="278" depart="111.20">
        <route edges="gneE1 gneE4 gneE9"/>
    </vehicle>
    <vehicle id="291" depart="116.40">
        <route edges="-gneE3 gneE1 gneE4 gneE9 gneE10 gneE13"/>
    </vehicle>
    <vehicle id="294" depart="117.60">
        <route edges="-gneE12 gneE10"/>
    </vehicle>
    <vehicle id="300" depart="120.00">
        <route edges="-gneE2 gneE3"/>
    </vehicle>
    <vehicle id="303" depart="121.20">
        <route edges="gneE11"/>
    </vehicle>
    <vehicle id="306" depart="122.40">
        <route edges="-gneE14 -gneE11 -gneE9 -gneE4 -gneE1 gneE2"/>
    </vehicle>
    <vehicle id="308" depart="123.20">
        <route edges="-gneE11"/>
    </vehicle>
    <vehicle id="310" depart="124.00">
        <route edges="gneE10 gneE13"/>
    </vehicle>
    <vehicle id="312" depart="124.80">
        <route edges="-gneE1"/>
    </vehicle>
    <vehicle id="320" depart="128.00">
        <route edges="-gneE7 -gneE2 gneE3"/>
    </vehicle>
    <vehicle id="323" depart="129.20">
        <route edges="-gneE16 -gneE12 gneE10 gneE13"/>
    </vehicle>
    <vehicle id="324" depart="129.60">
        <route edges="-gneE4 -gneE1 gneE2"/>
    </vehicle>
    <vehicle id="326" depart="130.40">
        <route edges="-gneE7 -gneE2 gneE0 gneE5"/>
    </vehicle>
    <vehicle id="327" depart="130.80">
        <route edges="-gneE5 -gneE0 gneE1 gneE4"/>
    </vehicle>
    <vehicle id="334" depart="133.60">
        <route edges="gneE4 gneE9"/>
    </vehicle>
    <vehicle id="350" depart="140.00">
        <route edges="-gneE12 -gneE9 -gneE4 -gneE1 gneE2 gneE7"/>
    </vehicle>
    <vehicle id="352" depart="140.80">
        <route edges="gneE1 gneE4 gneE9 gneE11 gneE14"/>
    </vehicle>
    <vehicle id="355" depart="142.00">
        <route edges="-gneE14 -gneE11 -gneE9 -gneE4 -gneE1 gneE2"/>
    </vehicle>
    <vehicle id="365" depart="146.00">
        <route edges="-gneE11 gneE12 gneE16"/>
    </vehicle>
    <vehicle id="370" depart="148.00">
        <route edges="-gneE3 gneE0"/>
    </vehicle>
    <vehicle id="379" depart="151.60">
        <route edges="-gneE9"/>
    </vehicle>
    <vehicle id="380" depart="152.00">
        <route edges="-gneE13 -gneE10 gneE11 gneE14"/>
    </vehicle>
    <vehicle id="381" depart="152.40">
        <route edges="-gneE6 -gneE3 gneE0 gneE5"/>
    </vehicle>
    <vehicle id="387" depart="154.80">
        <route edges="-gneE7 -gneE2 gneE3 gneE6"/>
    </vehicle>
    <vehicle id="390" depart="156.00">
        <route edges="-gneE0 gneE1 gneE4 gneE9 gneE10"/>
    </vehicle>
    <vehicle id="392" depart="156.80">
        <route edges="-gneE13 -gneE10"/>
    </vehicle>
    <vehicle id="393" depart="157.20">
        <route edges="-gneE16 -gneE12 -gneE9 -gneE4 -gneE1 gneE2"/>
    </vehicle>
    <vehicle id="408" depart="163.20">
        <route edges="-gneE3 gneE0 gneE5"/>
    </vehicle>
    <vehicle id="412" depart="164.80">
        <route edges="gneE9 gneE10"/>
    </vehicle>
    <vehicle id="414" depart="165.60">
        <route edges="gneE11"/>
    </vehicle>
    <vehicle id="415" depart="166.00">
        <route edges="-gneE5 -gneE0 gneE1 gneE4"/>
    </vehicle>
    <vehicle id="416" depart="166.40">
        <route edges="-gneE6 -gneE3 gneE1 gneE4 gneE9 gneE10 gneE13"/>
    </vehicle>
    <vehicle id="419" depart="167.60">
        <route edges="-gneE16 -gneE12 -gneE9"/>
    </vehicle>
    <vehicle id="424" depart="169.60">
        <route edges="-gneE5 -gneE0 gneE1"/>
    </vehicle>
    <vehicle id="427" depart="170.80">
        <route edges="-gneE0 gneE1"/>
    </vehicle>
    <vehicle id="433" depart="173.20">
        <route edges="-gneE1 gneE3"/>
    </vehicle>
    <vehicle id="436" depart="174.40">
        <route edges="-gneE0 gneE1"/>
    </vehicle>
    <vehicle id="438" depart="175.20">
        <route edges="-gneE5 -gneE0 gneE1 gneE4"/>
    </vehicle>
    <vehicle id="440" depart="176.00">
        <route edges="-gneE12 gneE10"/>
    </vehicle>
    <vehicle id="441" depart="176.40">
        <route edges="-gneE5 -gneE0 gneE1 gneE4 gneE9 gneE11 gneE14"/>
    </vehicle>
    <vehicle id="462" depart="184.80">
        <route edges="-gneE0"/>
    </vehicle>
    <vehicle id="463" depart="185.20">
        <route edges="-gneE0 gneE1 gneE4 gneE9 gneE11 gneE14"/>
    </vehicle>
    <vehicle id="468" depart="187.20">
        <route edges="-gneE6 -gneE3 gneE1 gneE4 gneE9 gneE11 gneE14"/>
    </vehicle>
    <vehicle id="472" depart="188.80">
        <route edges="-gneE11 -gneE9 -gneE4 -gneE1 gneE2 gneE7"/>
    </vehicle>
    <vehicle id="473" depart="189.20">
        <route edges="-gneE7 -gneE2 gneE3"/>
    </vehicle>
    <vehicle id="477" depart="190.80">
        <route edges="gneE2"/>
    </vehicle>
    <vehicle id="481" depart="192.40">
        <route edges="-gneE0 gneE1 gneE4"/>
    </vehicle>
    <vehicle id="486" depart="194.40">
        <route edges="gneE1 gneE4 gneE9 gneE10 gneE13"/>
    </vehicle>
    <vehicle id="487" depart="194.80">
        <route edges="-gneE11 -gneE9 -gneE4 -gneE1 gneE2 gneE7"/>
    </vehicle>
    <vehicle id="488" depart="195.20">
        <route edges="gneE11 gneE14"/>
    </vehicle>
    <vehicle id="490" depart="196.00">
        <route edges="gneE1"/>
    </vehicle>
    <vehicle id="496" depart="198.40">
        <route edges="-gneE1 gneE3"/>
    </vehicle>
    <vehicle id="506" depart="202.40">
        <route edges="-gneE3 gneE1 gneE4 gneE9 gneE11"/>
    </vehicle>
    <vehicle id="507" depart="202.80">
        <route edges="-gneE0 gneE2"/>
    </vehicle>
    <vehicle id="510" depart="204.00">
        <route edges="-gneE6 -gneE3"/>
    </vehicle>
    <vehicle id="513" depart="205.20">
        <route edges="-gneE16 -gneE12 -gneE9 -gneE4"/>
    </vehicle>
    <vehicle id="515" depart="206.00">
        <route edges="-gneE2 gneE3"/>
    </vehicle>
    <vehicle id="518" depart="207.20">
        <route edges="-gneE3 gneE1 gneE4"/>
    </vehicle>
    <vehicle id="519" depart="207.60">
        <route edges="-gneE7 -gneE2 gneE3"/>
    </vehicle>
    <vehicle id="521" depart="208.40">
        <route edges="-gneE12 gneE10 gneE13"/>
    </vehicle>
    <vehicle id="527" depart="210.80">
        <route edges="gneE3"/>
    </vehicle>
    <vehicle id="545" depart="218.00">
        <route edges="-gneE9 -gneE4 -gneE1 gneE2"/>
    </vehicle>
    <vehicle id="552" depart="220.80">
        <route edges="-gneE16 -gneE12 -gneE9 -gneE4"/>
    </vehicle>
    <vehicle id="562" depart="224.80">
        <route edges="-gneE0 gneE2"/>
    </vehicle>
    <vehicle id="563" depart="225.20">
        <route edges="-gneE3"/>
    </vehicle>
    <vehicle id="566" depart="226.40">
        <route edges="-gneE3 gneE1 gneE4 gneE9"/>
    </vehicle>
    <vehicle id="570" depart="228.00">
        <route edges="-gneE3 gneE1 gneE4 gneE9"/>
    </vehicle>
    <vehicle id="572" depart="228.80">
        <route edges="-gneE6 -gneE3"/>
    </vehicle>
    <vehicle id="578" depart="231.20">
        <route edges="-gneE7 -gneE2 gneE0"/>
    </vehicle>
    <vehicle id="579" depart="231.60">
        <route edges="-gneE3 gneE1 gneE4 gneE9 gneE10"/>
    </vehicle>
    <vehicle id="585" depart="234.00">
        <route edges="-gneE0 gneE1"/>
    </vehicle>
    <vehicle id="587" depart="234.80">
        <route edges="-gneE2 gneE3 gneE6"/>
    </vehicle>
    <vehicle id="589" depart="235.60">
        <route edges="-gneE2"/>
    </vehicle>
    <vehicle id="597" depart="238.80">
        <route edges="gneE1 gneE4 gneE9"/>
    </vehicle>
    <vehicle id="599" depart="239.60">
        <route edges="-gneE6 -gneE3 gneE1 gneE4 gneE9"/>
    </vehicle>
    <vehicle id="607" depart="242.80">
        <route edges="-gneE3 gneE1 gneE4"/>
    </vehicle>
    <vehicle id="614" depart="245.60">
        <route edges="-gneE11 -gneE9 -gneE4 -gneE1 gneE3"/>
    </vehicle>
    <vehicle id="621" depart="248.40">
        <route edges="gneE4 gneE9"/>
    </vehicle>
    <vehicle id="627" depart="250.80">
        <route edges="gneE4 gneE9 gneE10 gneE13"/>
    </vehicle>
    <vehicle id="630" depart="252.00">
        <route edges="-gneE6 -gneE3 gneE1 gneE4 gneE9 gneE11"/>
    </vehicle>
    <vehicle id="634" depart="253.60">
        <route edges="-gneE4 -gneE1 gneE2"/>
    </vehicle>
    <vehicle id="635" depart="254.00">
        <route edges="-gneE6 -gneE3 gneE1 gneE4 gneE9 gneE10 gneE13"/>
    </vehicle>
    <vehicle id="639" depart="255.60">
        <route edges="gneE2"/>
    </vehicle>
    <vehicle id="640" depart="256.00">
        <route edges="-gneE0 gneE1 gneE4 gneE9 gneE10"/>
    </vehicle>
    <vehicle id="647" depart="258.80">
        <route edges="gneE3"/>
    </vehicle>
    <vehicle id="654" depart="261.60">
        <route edges="-gneE11 -gneE9 -gneE4"/>
    </vehicle>
    <vehicle id="656" depart="262.40">
        <route edges="-gneE14 -gneE11 -gneE9 -gneE4 -gneE1 gneE3 gneE6"/>
    </vehicle>
    <vehicle id="659" depart="263.60">
        <route edges="-gneE6 -gneE3 gneE1"/>
    </vehicle>
    <vehicle id="661" depart="264.40">
        <route edges="-gneE6 -gneE3 gneE1 gneE4 gneE9 gneE11 gneE14"/>
    </vehicle>
    <vehicle id="662" depart="264.80">
        <route edges="-gneE11 gneE12 gneE16"/>
    </vehicle>
    <vehicle id="664" depart="265.60">
        <route edges="-gneE5 -gneE0 gneE1 gneE4 gneE9 gneE10 gneE13"/>
    </vehicle>
    <vehicle id="666" depart="266.40">
        <route edges="-gneE16 -gneE12 -gneE9 -gneE4 -gneE1"/>
    </vehicle>
    <vehicle id="670" depart="268.00">
        <route edges="-gneE0 gneE1 gneE4"/>
    </vehicle>
    <vehicle id="671" depart="268.40">
        <route edges="-gneE10 gneE12 gneE16"/>
    </vehicle>
    <vehicle id="672" depart="268.80">
        <route edges="-gneE1 gneE3"/>
    </vehicle>
    <vehicle id="673" depart="269.20">
        <route edges="-gneE5 -gneE0 gneE1 gneE4 gneE9 gneE11 gneE14"/>
    </vehicle>
    <vehicle id="675" depart="270.00">
        <route edges="gneE10 gneE13"/>
    </vehicle>
    <vehicle id="681" depart="272.40">
        <route edges="-gneE9 -gneE4 -gneE1 gneE3 gneE6"/>
    </vehicle>
    <vehicle id="682" depart="272.80">
        <route edges="gneE1 gneE4 gneE9 gneE11 gneE14"/>
    </vehicle>
    <vehicle id="683" depart="273.20">
        <route edges="-gneE1 gneE3"/>
    </vehicle>
    <vehicle id="684" depart="273.60">
        <route edges="gneE3"/>
    </vehicle>
    <vehicle id="686" depart="274.40">
        <route edges="gneE4 gneE9 gneE10 gneE13"/>
    </vehicle>
    <vehicle id="688" depart="275.20">
        <route edges="-gneE14 -gneE11 -gneE9 -gneE4 -gneE1 gneE3"/>
    </vehicle>
    <vehicle id="689" depart="275.60">
        <route edges="-gneE2 gneE0 gneE5"/>
    </vehicle>
    <vehicle id="708" depart="283.20">
        <route edges="-gneE0 gneE2 gneE7"/>
    </vehicle>
    <vehicle id="719" depart="287.60">
        <route edges="gneE11"/>
    </vehicle>
    <vehicle id="725" depart="290.00">
        <route edges="gneE11 gneE14"/>
    </vehicle>
    <vehicle id="729" depart="291.60">
        <route edges="gneE1"/>
    </vehicle>
    <vehicle id="730" depart="292.00">
        <route edges="-gneE16 -gneE12 gneE10 gneE13"/>
    </vehicle>
    <vehicle id="736" depart="294.40">
        <route edges="-gneE3 gneE1 gneE4 gneE9 gneE11 gneE14"/>
    </vehicle>
    <vehicle id="740" depart="296.00">
        <route edges="-gneE9 -gneE4 -gneE1"/>
    </vehicle>
    <vehicle id="741" depart="296.40">
        <route edges="gneE4 gneE9 gneE10 gneE13"/>
    </vehicle>
    <vehicle id="743" depart="297.20">
        <route edges="-gneE16 -gneE12 -gneE9 -gneE4 -gneE1 gneE2 gneE7"/>
    </vehicle>
    <vehicle id="751" depart="300.40">
        <route edges="-gneE4 -gneE1 gneE2"/>
    </vehicle>
    <vehicle id="754" depart="301.60">
        <route edges="-gneE12 -gneE9 -gneE4 -gneE1 gneE2"/>
    </vehicle>
    <vehicle id="755" depart="302.00">
        <route edges="-gneE7 -gneE2 gneE3"/>
    </vehicle>
    <vehicle id="756" depart="302.40">
        <route edges="-gneE0 gneE1 gneE4"/>
    </vehicle>
    <vehicle id="760" depart="304.00">
        <route edges="-gneE2"/>
    </vehicle>
    <vehicle id="762" depart="304.80">
        <route edges="gneE4 gneE9"/>
    </vehicle>
    <vehicle id="769" depart="307.60">
        <route edges="-gneE5 -gneE0 gneE1 gneE4 gneE9 gneE10"/>
    </vehicle>
    <vehicle id="774" depart="309.60">
        <route edges="-gneE12 gneE10"/>
    </vehicle>
    <vehicle id="781" depart="312.40">
        <route edges="gneE4 gneE9 gneE11 gneE14"/>
    </vehicle>
    <vehicle id="783" depart="313.20">
        <route edges="-gneE0 gneE1 gneE4"/>
    </vehicle>
    <vehicle id="784" depart="313.60">
        <route edges="-gneE16 -gneE12 -gneE9 -gneE4"/>
    </vehicle>
    <vehicle id="791" depart="316.40">
        <route edges="-gneE0 gneE1 gneE4 gneE9"/>
    </vehicle>
    <vehicle id="800" depart="320.00">
        <route edges="-gneE5 -gneE0 gneE1 gneE4 gneE9"/>
    </vehicle>
    <vehicle id="804" depart="321.60">
        <route edges="-gneE10 gneE11 gneE14"/>
    </vehicle>
    <vehicle id="805" depart="322.00">
        <route edges="gneE0 gneE5"/>
    </vehicle>
    <vehicle id="809" depart="323.60">
        <route edges="-gneE10 gneE11 gneE14"/>
    </vehicle>
    <vehicle id="813" depart="325.20">
        <route edges="gneE3 gneE6"/>
    </vehicle>
    <vehicle id="816" depart="326.40">
        <route edges="-gneE5 -gneE0 gneE1 gneE4 gneE9 gneE11"/>
    </vehicle>
    <vehicle id="823" depart="329.20">
        <route edges="-gneE5 -gneE0 gneE1"/>
    </vehicle>
    <vehicle id="824" depart="329.60">
        <route edges="gneE4"/>
    </vehicle>
    <vehicle id="833" depart="333.20">
        <route edges="-gneE16 -gneE12 -gneE9 -gneE4 -gneE1 gneE3"/>
    </vehicle>
    <vehicle id="836" depart="334.40">
        <route edges="-gneE7 -gneE2"/>
    </vehicle>
    <vehicle id="837" depart="334.80">
        <route edges="-gneE11"/>
    </vehicle>
    <vehicle id="838" depart="335.20">
        <route edges="-gneE2 gneE0"/>
    </vehicle>
    <vehicle id="849" depart="339.60">
        <route edges="gneE4 gneE9 gneE11"/>
    </vehicle>
    <vehicle id="851" depart="340.40">
        <route edges="-gneE9 -gneE4 -gneE1 gneE3"/>
    </vehicle>
    <vehicle id="852" depart="340.80">
        <route edges="-gneE4 -gneE1 gneE2"/>
    </vehicle>
    <vehicle id="857" depart="342.80">
        <route edges="gneE9 gneE10 gneE13"/>
    </vehicle>
    <vehicle id="861" depart="344.40">
        <route edges="-gneE11 -gneE9"/>
    </vehicle>
    <vehicle id="862" depart="344.80">
        <route edges="gneE2 gneE7"/>
    </vehicle>
    <vehicle id="876" depart="350.40">
        <route edges="-gneE12 -gneE9 -gneE4 -gneE1"/>
    </vehicle>
    <vehicle id="877" depart="350.80">
        <route edges="-gneE14 -gneE11 -gneE9 -gneE4 -gneE1 gneE3"/>
    </vehicle>
    <vehicle id="887" depart="354.80">
        <route edges="-gneE16 -gneE12 gneE10 gneE13"/>
    </vehicle>
    <vehicle id="889" depart="355.60">
        <route edges="-gneE11 gneE12 gneE16"/>
    </vehicle>
    <vehicle id="890" depart="356.00">
        <route edges="-gneE9 -gneE4 -gneE1 gneE2"/>
    </vehicle>
    <vehicle id="891" depart="356.40">
        <route edges="-gneE3 gneE0"/>
    </vehicle>
    <vehicle id="893" depart="357.20">
        <route edges="-gneE12 gneE10 gneE13"/>
    </vehicle>
    <vehicle id="894" depart="357.60">
        <route edges="gneE11"/>
    </vehicle>
    <vehicle id="904" depart="361.60">
        <route edges="-gneE12"/>
    </vehicle>
    <vehicle id="907" depart="362.80">
        <route edges="-gneE12 -gneE9 -gneE4 -gneE1 gneE3 gneE6"/>
    </vehicle>
    <vehicle id="913" depart="365.20">
        <route edges="-gneE5 -gneE0 gneE2"/>
    </vehicle>
    <vehicle id="914" depart="365.60">
        <route edges="-gneE11 gneE12 gneE16"/>
    </vehicle>
    <vehicle id="918" depart="367.20">
        <route edges="-gneE12 gneE10"/>
    </vehicle>
    <vehicle id="923" depart="369.20">
        <route edges="-gneE16 -gneE12 -gneE9 -gneE4"/>
    </vehicle>
    <vehicle id="925" depart="370.00">
        <route edges="-gneE5 -gneE0 gneE2"/>
    </vehicle>
    <vehicle id="926" depart="370.40">
        <route edges="gneE4 gneE9 gneE11 gneE14"/>
    </vehicle>
    <vehicle id="928" depart="371.20">
        <route edges="-gneE13 -gneE10 gneE11 gneE14"/>
    </vehicle>
    <vehicle id="931" depart="372.40">
        <route edges="-gneE6 -gneE3"/>
    </vehicle>
    <vehicle id="936" depart="374.40">
        <route edges="-gneE2 gneE3"/>
    </vehicle>
    <vehicle id="942" depart="376.80">
        <route edges="-gneE11 gneE12 gneE16"/>
    </vehicle>
    <vehicle id="948" depart="379.20">
        <route edges="-gneE12 -gneE9 -gneE4 -gneE1"/>
    </vehicle>
    <vehicle id="949" depart="379.60">
        <route edges="-gneE3 gneE1 gneE4 gneE9 gneE11 gneE14"/>
    </vehicle>
    <vehicle id="950" depart="380.00">
        <route edges="-gneE6 -gneE3 gneE1 gneE4 gneE9 gneE11"/>
    </vehicle>
    <vehicle id="951" depart="380.40">
        <route edges="-gneE14 -gneE11 -gneE9 -gneE4 -gneE1 gneE2"/>
    </vehicle>
    <vehicle id="952" depart="380.80">
        <route edges="gneE9 gneE11 gneE14"/>
    </vehicle>
    <vehicle id="955" depart="382.00">
        <route edges="-gneE11 -gneE9"/>
    </vehicle>
    <vehicle id="963" depart="385.20">
        <route edges="-gneE14 -gneE11 -gneE9 -gneE4 -gneE1 gneE3"/>
    </vehicle>
    <vehicle id="965" depart="386.00">
        <route edges="-gneE13 -gneE10 gneE11 gneE14"/>
    </vehicle>
    <vehicle id="968" depart="387.20">
        <route edges="-gneE6 -gneE3 gneE1"/>
    </vehicle>
    <vehicle id="974" depart="389.60">
        <route edges="gneE4 gneE9 gneE10 gneE13"/>
    </vehicle>
    <vehicle id="976" depart="390.40">
        <route edges="-gneE0 gneE1 gneE4 gneE9"/>
    </vehicle>
    <vehicle id="978" depart="391.20">
        <route edges="-gneE4 -gneE1 gneE2 gneE7"/>
    </vehicle>
    <vehicle id="981" depart="392.40">
        <route edges="gneE4"/>
    </vehicle>
    <vehicle id="984" depart="393.60">
        <route edges="-gneE9 -gneE4 -gneE1"/>
    </vehicle>
    <vehicle id="985" depart="394.00">
        <route edges="gneE10"/>
    </vehicle>
    <vehicle id="989" depart="395.60">
        <route edges="gneE2"/>
    </vehicle>
    <vehicle id="996" depart="398.40">
        <route edges="gneE4 gneE9"/>
    </vehicle>
    <vehicle id="998" depart="399.20">
        <route edges="gneE4 gneE9 gneE11 gneE14"/>
    </vehicle>
    <vehicle id="1002" depart="400.80">
        <route edges="-gneE3 gneE1 gneE4 gneE9 gneE10 gneE13"/>
    </vehicle>
    <vehicle id="1005" depart="402.00">
        <route edges="gneE10 gneE13"/>
    </vehicle>
    <vehicle id="1006" depart="402.40">
        <route edges="-gneE6 -gneE3 gneE1 gneE4"/>
    </vehicle>
    <vehicle id="1010" depart="404.00">
        <route edges="-gneE16 -gneE12"/>
    </vehicle>
    <vehicle id="1011" depart="404.40">
        <route edges="-gneE0 gneE1 gneE4 gneE9 gneE11"/>
    </vehicle>
    <vehicle id="1012" depart="404.80">
        <route edges="-gneE4 -gneE1 gneE3"/>
    </vehicle>
    <vehicle id="1017" depart="406.80">
        <route edges="-gneE6 -gneE3 gneE1 gneE4 gneE9 gneE11 gneE14"/>
    </vehicle>
    <vehicle id="1022" depart="408.80">
        <route edges="-gneE1"/>
    </vehicle>
    <vehicle id="1033" depart="413.20">
        <route edges="gneE0 gneE5"/>
    </vehicle>
    <vehicle id="1035" depart="414.00">
        <route edges="gneE4 gneE9 gneE10 gneE13"/>
    </vehicle>
    <vehicle id="1036" depart="414.40">
        <route edges="gneE2"/>
    </vehicle>
    <vehicle id="1038" depart="415.20">
        <route edges="-gneE3 gneE1 gneE4 gneE9 gneE11 gneE14"/>
    </vehicle>
    <vehicle id="1045" depart="418.00">
        <route edges="-gneE14 -gneE11"/>
    </vehicle>
    <vehicle id="1056" depart="422.40">
        <route edges="gneE4 gneE9 gneE10"/>
    </vehicle>
    <vehicle id="1061" depart="424.40">
        <route edges="-gneE16 -gneE12 gneE10 gneE13"/>
    </vehicle>
    <vehicle id="1064" depart="425.60">
        <route edges="gneE9 gneE10"/>
    </vehicle>
    <vehicle id="1065" depart="426.00">
        <route edges="-gneE11 gneE12 gneE16"/>
    </vehicle>
    <vehicle id="1068" depart="427.20">
        <route edges="-gneE9 -gneE4 -gneE1 gneE2"/>
    </vehicle>
    <vehicle id="1072" depart="428.80">
        <route edges="gneE12"/>
    </vehicle>
    <vehicle id="1073" depart="429.20">
        <route edges="-gneE3 gneE0"/>
    </vehicle>
    <vehicle id="1075" depart="430.00">
        <route edges="-gneE7 -gneE2 gneE3 gneE6"/>
    </vehicle>
    <vehicle id="1076" depart="430.40">
        <route edges="-gneE16 -gneE12"/>
    </vehicle>
    <vehicle id="1077" depart="430.80">
        <route edges="-gneE7 -gneE2 gneE0 gneE5"/>
    </vehicle>
    <vehicle id="1082" depart="432.80">
        <route edges="-gneE3 gneE0 gneE5"/>
    </vehicle>
    <vehicle id="1083" depart="433.20">
        <route edges="-gneE3 gneE1 gneE4 gneE9 gneE10"/>
    </vehicle>
    <vehicle id="1087" depart="434.80">
        <route edges="-gneE9 -gneE4"/>
    </vehicle>
    <vehicle id="1088" depart="435.20">
        <route edges="-gneE11 -gneE9 -gneE4 -gneE1 gneE2"/>
    </vehicle>
    <vehicle id="1093" depart="437.20">
        <route edges="-gneE11 -gneE9 -gneE4 -gneE1 gneE3"/>
    </vehicle>
    <vehicle id="1094" depart="437.60">
        <route edges="-gneE11 -gneE9 -gneE4 -gneE1 gneE3"/>
    </vehicle>
    <vehicle id="1102" depart="440.80">
        <route edges="-gneE6 -gneE3"/>
    </vehicle>
    <vehicle id="1112" depart="444.80">
        <route edges="-gneE6 -gneE3 gneE1 gneE4 gneE9 gneE10"/>
    </vehicle>
    <vehicle id="1115" depart="446.00">
        <route edges="-gneE2 gneE3 gneE6"/>
    </vehicle>
    <vehicle id="1118" depart="447.20">
        <route edges="-gneE0 gneE2"/>
    </vehicle>
    <vehicle id="1119" depart="447.60">
        <route edges="gneE1 gneE4 gneE9 gneE10 gneE13"/>
    </vehicle>
    <vehicle id="1120" depart="448.00">
        <route edges="-gneE3 gneE0"/>
    </vehicle>
    <vehicle id="1121" depart="448.40">
        <route edges="-gneE11 gneE12 gneE16"/>
    </vehicle>
    <vehicle id="1122" depart="448.80">
        <route edges="gneE1 gneE4 gneE9 gneE10"/>
    </vehicle>
    <vehicle id="1129" depart="451.60">
        <route edges="gneE4 gneE9"/>
    </vehicle>
    <vehicle id="1131" depart="452.40">