<?xml version="1.0" encoding="UTF-8"?>

<!-- generated on 2021-09-29 19:30:49 by Eclipse SUMO duarouter Version 1.9.2
<configuration xmlns:xsi="http://www.w3.org/2001/XMLSchema-instance" xsi:noNamespaceSchemaLocation="http://sumo.dlr.de/xsd/duarouterConfiguration.xsd">

    <input>
        <net-file value="/home/sonic/Desktop/nets/case03/intersection.net.xml"/>
        <route-files value="trips.trips.xml"/>
    </input>

    <output>
        <output-file value="intersection_random34.rou.xml"/>
        <alternatives-output value="intersection_random34.rou.alt.xml"/>
    </output>

    <time>
        <begin value="0"/>
        <end value="3600.0"/>
    </time>

    <report>
        <no-warnings value="true"/>
        <ignore-errors value="true"/>
        <no-step-log value="true"/>
    </report>

</configuration>
-->

<routes xmlns:xsi="http://www.w3.org/2001/XMLSchema-instance" xsi:noNamespaceSchemaLocation="http://sumo.dlr.de/xsd/routes_file.xsd">
    <vehicle id="5" depart="2.00">
        <route edges="-gneE2 gneE3"/>
    </vehicle>
    <vehicle id="11" depart="4.40">
        <route edges="gneE4 gneE9"/>
    </vehicle>
    <vehicle id="16" depart="6.40">
        <route edges="-gneE1 gneE2"/>
    </vehicle>
    <vehicle id="21" depart="8.40">
        <route edges="-gneE9 -gneE4"/>
    </vehicle>
    <vehicle id="27" depart="10.80">
        <route edges="gneE9 gneE11 gneE14"/>
    </vehicle>
    <vehicle id="28" depart="11.20">
        <route edges="-gneE6 -gneE3 gneE1 gneE4 gneE9 gneE11"/>
    </vehicle>
    <vehicle id="33" depart="13.20">
        <route edges="gneE1 gneE4"/>
    </vehicle>
    <vehicle id="39" depart="15.60">
        <route edges="-gneE5 -gneE0 gneE1 gneE4 gneE9 gneE10 gneE13"/>
    </vehicle>
    <vehicle id="41" depart="16.40">
        <route edges="-gneE5 -gneE0 gneE1 gneE4 gneE9 gneE10"/>
    </vehicle>
    <vehicle id="44" depart="17.60">
        <route edges="-gneE3 gneE0 gneE5"/>
    </vehicle>
    <vehicle id="45" depart="18.00">
        <route edges="-gneE16 -gneE12 gneE10"/>
    </vehicle>
    <vehicle id="48" depart="19.20">
        <route edges="gneE1 gneE4 gneE9 gneE11"/>
    </vehicle>
    <vehicle id="50" depart="20.00">
        <route edges="-gneE0"/>
    </vehicle>
    <vehicle id="51" depart="20.40">
        <route edges="-gneE5 -gneE0 gneE1 gneE4"/>
    </vehicle>
    <vehicle id="55" depart="22.00">
        <route edges="-gneE3 gneE1 gneE4 gneE9 gneE10"/>
    </vehicle>
    <vehicle id="59" depart="23.60">
        <route edges="-gneE5 -gneE0 gneE2 gneE7"/>
    </vehicle>
    <vehicle id="60" depart="24.00">
        <route edges="-gneE14 -gneE11 -gneE9 -gneE4 -gneE1"/>
    </vehicle>
    <vehicle id="67" depart="26.80">
        <route edges="-gneE6 -gneE3 gneE1 gneE4"/>
    </vehicle>
    <vehicle id="68" depart="27.20">
        <route edges="-gneE4 -gneE1 gneE3 gneE6"/>
    </vehicle>
    <vehicle id="71" depart="28.40">
        <route edges="-gneE16 -gneE12"/>
    </vehicle>
    <vehicle id="76" depart="30.40">
        <route edges="-gneE12 -gneE9 -gneE4 -gneE1 gneE3"/>
    </vehicle>
    <vehicle id="79" depart="31.60">
        <route edges="gneE4 gneE9 gneE10"/>
    </vehicle>
    <vehicle id="83" depart="33.20">
        <route edges="-gneE9 -gneE4"/>
    </vehicle>
    <vehicle id="86" depart="34.40">
        <route edges="-gneE14 -gneE11 -gneE9 -gneE4 -gneE1 gneE2 gneE7"/>
    </vehicle>
    <vehicle id="90" depart="36.00">
        <route edges="-gneE9 -gneE4 -gneE1 gneE3 gneE6"/>
    </vehicle>
    <vehicle id="98" depart="39.20">
        <route edges="-gneE11 -gneE9 -gneE4 -gneE1 gneE2 gneE7"/>
    </vehicle>
    <vehicle id="101" depart="40.40">
        <route edges="-gneE6 -gneE3 gneE1 gneE4 gneE9 gneE11"/>
    </vehicle>
    <vehicle id="109" depart="43.60">
        <route edges="-gneE0 gneE1 gneE4 gneE9 gneE10 gneE13"/>
    </vehicle>
    <vehicle id="113" depart="45.20">
        <route edges="gneE3"/>
    </vehicle>
    <vehicle id="114" depart="45.60">
        <route edges="-gneE1 gneE2"/>
    </vehicle>
    <vehicle id="118" depart="47.20">
        <route edges="-gneE14 -gneE11 gneE12"/>
    </vehicle>
    <vehicle id="121" depart="48.40">
        <route edges="-gneE14 -gneE11"/>
    </vehicle>
    <vehicle id="126" depart="50.40">
        <route edges="-gneE12 -gneE9 -gneE4"/>
    </vehicle>
    <vehicle id="128" depart="51.20">
        <route edges="gneE1 gneE4 gneE9"/>
    </vehicle>
    <vehicle id="133" depart="53.20">
        <route edges="-gneE7 -gneE2"/>
    </vehicle>
    <vehicle id="137" depart="54.80">
        <route edges="-gneE5 -gneE0 gneE1 gneE4 gneE9 gneE10 gneE13"/>
    </vehicle>
    <vehicle id="139" depart="55.60">
        <route edges="-gneE0"/>
    </vehicle>
    <vehicle id="143" depart="57.20">
        <route edges="-gneE14 -gneE11 -gneE9 -gneE4 -gneE1 gneE3"/>
    </vehicle>
    <vehicle id="144" depart="57.60">
        <route edges="-gneE11 gneE12"/>
    </vehicle>
    <vehicle id="149" depart="59.60">
        <route edges="-gneE7 -gneE2 gneE0 gneE5"/>
    </vehicle>
    <vehicle id="150" depart="60.00">
        <route edges="gneE1 gneE4 gneE9 gneE11"/>
    </vehicle>
    <vehicle id="151" depart="60.40">
        <route edges="-gneE3 gneE1 gneE4"/>
    </vehicle>
    <vehicle id="179" depart="71.60">
        <route edges="gneE2"/>
    </vehicle>
    <vehicle id="182" depart="72.80">
        <route edges="-gneE3 gneE1 gneE4 gneE9 gneE11 gneE14"/>
    </vehicle>
    <vehicle id="185" depart="74.00">
        <route edges="-gneE5 -gneE0 gneE2"/>
    </vehicle>
    <vehicle id="189" depart="75.60">
        <route edges="gneE4 gneE9 gneE11 gneE14"/>
    </vehicle>
    <vehicle id="194" depart="77.60">
        <route edges="-gneE3 gneE1 gneE4 gneE9 gneE10 gneE13"/>
    </vehicle>
    <vehicle id="198" depart="79.20">
        <route edges="gneE1 gneE4 gneE9"/>
    </vehicle>
    <vehicle id="203" depart="81.20">
        <route edges="-gneE0 gneE1 gneE4 gneE9 gneE10"/>
    </vehicle>
    <vehicle id="206" depart="82.40">
        <route edges="-gneE3 gneE1 gneE4 gneE9 gneE10"/>
    </vehicle>
    <vehicle id="210" depart="84.00">
        <route edges="-gneE6 -gneE3 gneE1 gneE4 gneE9 gneE11"/>
    </vehicle>
    <vehicle id="212" depart="84.80">
        <route edges="gneE11 gneE14"/>
    </vehicle>
    <vehicle id="214" depart="85.60">
        <route edges="-gneE12 -gneE9 -gneE4 -gneE1 gneE3"/>
    </vehicle>
    <vehicle id="216" depart="86.40">
        <route edges="-gneE6 -gneE3 gneE1 gneE4 gneE9"/>
    </vehicle>
    <vehicle id="219" depart="87.60">
        <route edges="-gneE6 -gneE3 gneE1 gneE4 gneE9 gneE11 gneE14"/>
    </vehicle>
    <vehicle id="223" depart="89.20">
        <route edges="gneE12 gneE16"/>
    </vehicle>
    <vehicle id="224" depart="89.60">
        <route edges="-gneE10 gneE11 gneE14"/>
    </vehicle>
    <vehicle id="225" depart="90.00">
        <route edges="-gneE12"/>
    </vehicle>
    <vehicle id="235" depart="94.00">
        <route edges="-gneE0 gneE1 gneE4 gneE9 gneE11"/>
    </vehicle>
    <vehicle id="236" depart="94.40">
        <route edges="-gneE7 -gneE2 gneE0"/>
    </vehicle>
    <vehicle id="245" depart="98.00">
        <route edges="gneE4 gneE9 gneE11 gneE14"/>
    </vehicle>
    <vehicle id="251" depart="100.40">
        <route edges="-gneE16 -gneE12 -gneE9 -gneE4 -gneE1 gneE3 gneE6"/>
    </vehicle>
    <vehicle id="257" depart="102.80">
        <route edges="-gneE5 -gneE0 gneE1 gneE4 gneE9 gneE11"/>
    </vehicle>
    <vehicle id="271" depart="108.40">
        <route edges="-gneE3 gneE1 gneE4"/>
    </vehicle>
    <vehicle id="272" depart="108.80">
        <route edges="-gneE2 gneE0 gneE5"/>
    </vehicle>
    <vehicle id="273" depart="109.20">
        <route edges="-gneE16 -gneE12 -gneE9 -gneE4 -gneE1 gneE3"/>
    </vehicle>
    <vehicle id="277" depart="110.80">
        <route edges="-gneE9"/>
    </vehicle>
    <vehicle id="279" depart="111.60">
        <route edges="-gneE11 -gneE9"/>
    </vehicle>
    <vehicle id="283" depart="113.20">
        <route edges="-gneE3 gneE1 gneE4 gneE9"/>
    </vehicle>
    <vehicle id="288" depart="115.20">
        <route edges="-gneE16 -gneE12 -gneE9 -gneE4 -gneE1 gneE3 gneE6"/>
    </vehicle>
    <vehicle id="293" depart="117.20">
        <route edges="-gneE7 -gneE2 gneE3"/>
    </vehicle>
    <vehicle id="294" depart="117.60">
        <route edges="-gneE12 -gneE9 -gneE4"/>
    </vehicle>
    <vehicle id="297" depart="118.80">
        <route edges="-gneE0 gneE1 gneE4 gneE9 gneE11 gneE14"/>
    </vehicle>
    <vehicle id="305" depart="122.00">
        <route edges="-gneE6 -gneE3"/>
    </vehicle>
    <vehicle id="307" depart="122.80">
        <route edges="-gneE6 -gneE3 gneE1"/>
    </vehicle>
    <vehicle id="309" depart="123.60">
        <route edges="-gneE12 gneE10 gneE13"/>
    </vehicle>
    <vehicle id="315" depart="126.00">
        <route edges="-gneE6 -gneE3 gneE1 gneE4 gneE9 gneE10 gneE13"/>
    </vehicle>
    <vehicle id="318" depart="127.20">
        <route edges="-gneE12 -gneE9"/>
    </vehicle>
    <vehicle id="320" depart="128.00">
        <route edges="-gneE14 -gneE11 -gneE9"/>
    </vehicle>
    <vehicle id="321" depart="128.40">
        <route edges="-gneE6 -gneE3 gneE1 gneE4 gneE9 gneE10"/>
    </vehicle>
    <vehicle id="325" depart="130.00">
        <route edges="-gneE9"/>
    </vehicle>
    <vehicle id="326" depart="130.40">
        <route edges="-gneE16 -gneE12 -gneE9 -gneE4 -gneE1 gneE2"/>
    </vehicle>
    <vehicle id="332" depart="132.80">
        <route edges="-gneE6 -gneE3 gneE1 gneE4 gneE9"/>
    </vehicle>
    <vehicle id="336" depart="134.40">
        <route edges="-gneE16 -gneE12 -gneE9 -gneE4 -gneE1 gneE3 gneE6"/>
    </vehicle>
    <vehicle id="338" depart="135.20">
        <route edges="-gneE13 -gneE10 gneE12 gneE16"/>
    </vehicle>
    <vehicle id="341" depart="136.40">
        <route edges="gneE9 gneE10 gneE13"/>
    </vehicle>
    <vehicle id="346" depart="138.40">
        <route edges="-gneE11 -gneE9 -gneE4"/>
    </vehicle>
    <vehicle id="350" depart="140.00">
        <route edges="-gneE14 -gneE11 gneE12 gneE16"/>
    </vehicle>
    <vehicle id="354" depart="141.60">
        <route edges="-gneE3 gneE1 gneE4 gneE9 gneE10 gneE13"/>
    </vehicle>
    <vehicle id="355" depart="142.00">
        <route edges="gneE0"/>
    </vehicle>
    <vehicle id="357" depart="142.80">
        <route edges="-gneE14 -gneE11 -gneE9 -gneE4 -gneE1"/>
    </vehicle>
    <vehicle id="359" depart="143.60">
        <route edges="gneE4 gneE9 gneE11 gneE14"/>
    </vehicle>
    <vehicle id="362" depart="144.80">
        <route edges="-gneE11 -gneE9 -gneE4 -gneE1"/>
    </vehicle>
    <vehicle id="365" depart="146.00">
        <route edges="-gneE10 gneE12 gneE16"/>
    </vehicle>
    <vehicle id="373" depart="149.20">
        <route edges="gneE1 gneE4 gneE9 gneE11 gneE14"/>
    </vehicle>
    <vehicle id="384" depart="153.60">
        <route edges="gneE4"/>
    </vehicle>
    <vehicle id="389" depart="155.60">
        <route edges="gneE4 gneE9 gneE11"/>
    </vehicle>
    <vehicle id="390" depart="156.00">
        <route edges="-gneE12 -gneE9 -gneE4 -gneE1 gneE3 gneE6"/>
    </vehicle>
    <vehicle id="391" depart="156.40">
        <route edges="-gneE11 -gneE9"/>
    </vehicle>
    <vehicle id="396" depart="158.40">
        <route edges="-gneE3"/>
    </vehicle>
    <vehicle id="398" depart="159.20">
        <route edges="-gneE7 -gneE2 gneE0"/>
    </vehicle>
    <vehicle id="406" depart="162.40">
        <route edges="-gneE13 -gneE10 gneE11 gneE14"/>
    </vehicle>
    <vehicle id="418" depart="167.20">
        <route edges="-gneE6 -gneE3 gneE0"/>
    </vehicle>
    <vehicle id="420" depart="168.00">
        <route edges="-gneE9"/>
    </vehicle>
    <vehicle id="423" depart="169.20">
        <route edges="-gneE0 gneE1 gneE4 gneE9 gneE10 gneE13"/>
    </vehicle>
    <vehicle id="426" depart="170.40">
        <route edges="-gneE9"/>
    </vehicle>
    <vehicle id="427" depart="170.80">
        <route edges="gneE4"/>
    </vehicle>
    <vehicle id="428" depart="171.20">
        <route edges="-gneE14 -gneE11 -gneE9"/>
    </vehicle>
    <vehicle id="431" depart="172.40">
        <route edges="gneE11 gneE14"/>
    </vehicle>
    <vehicle id="435" depart="174.00">
        <route edges="-gneE14 -gneE11 -gneE9"/>
    </vehicle>
    <vehicle id="439" depart="175.60">
        <route edges="-gneE6 -gneE3 gneE1 gneE4 gneE9 gneE10"/>
    </vehicle>
    <vehicle id="442" depart="176.80">
        <route edges="-gneE0 gneE1 gneE4 gneE9 gneE11"/>
    </vehicle>
    <vehicle id="450" depart="180.00">
        <route edges="-gneE1 gneE2 gneE7"/>
    </vehicle>
    <vehicle id="453" depart="181.20">
        <route edges="-gneE16 -gneE12 -gneE9"/>
    </vehicle>
    <vehicle id="468" depart="187.20">
        <route edges="-gneE14 -gneE11 -gneE9 -gneE4"/>
    </vehicle>
    <vehicle id="469" depart="187.60">
        <route edges="-gneE4 -gneE1 gneE2"/>
    </vehicle>
    <vehicle id="472" depart="188.80">
        <route edges="-gneE13 -gneE10 gneE11"/>
    </vehicle>
    <vehicle id="481" depart="192.40">
        <route edges="-gneE9 -gneE4 -gneE1 gneE2"/>
    </vehicle>
    <vehicle id="504" depart="201.60">
        <route edges="-gneE5 -gneE0 gneE2"/>
    </vehicle>
    <vehicle id="507" depart="202.80">
        <route edges="-gneE9 -gneE4 -gneE1 gneE2"/>
    </vehicle>
    <vehicle id="516" depart="206.40">
        <route edges="gneE0 gneE5"/>
    </vehicle>
    <vehicle id="517" depart="206.80">
        <route edges="-gneE5 -gneE0 gneE1 gneE4"/>
    </vehicle>
    <vehicle id="518" depart="207.20">
        <route edges="gneE12"/>
    </vehicle>
    <vehicle id="521" depart="208.40">
        <route edges="-gneE6 -gneE3 gneE1 gneE4 gneE9 gneE10"/>
    </vehicle>
    <vehicle id="522" depart="208.80">
        <route edges="-gneE1 gneE2"/>
    </vehicle>
    <vehicle id="527" depart="210.80">
        <route edges="gneE1 gneE4 gneE9 gneE11"/>
    </vehicle>
    <vehicle id="532" depart="212.80">
        <route edges="-gneE0 gneE1 gneE4 gneE9 gneE10"/>
    </vehicle>
    <vehicle id="536" depart="214.40">
        <route edges="-gneE1 gneE2 gneE7"/>
    </vehicle>
    <vehicle id="537" depart="214.80">
        <route edges="-gneE11 gneE12 gneE16"/>
    </vehicle>
    <vehicle id="541" depart="216.40">
        <route edges="-gneE0 gneE2 gneE7"/>
    </vehicle>
    <vehicle id="546" depart="218.40">
        <route edges="-gneE11 -gneE9 -gneE4 -gneE1 gneE2 gneE7"/>
    </vehicle>
    <vehicle id="547" depart="218.80">
        <route edges="gneE11"/>
    </vehicle>
    <vehicle id="549" depart="219.60">
        <route edges="-gneE12 -gneE9 -gneE4 -gneE1"/>
    </vehicle>
    <vehicle id="552" depart="220.80">
        <route edges="-gneE1 gneE2"/>
    </vehicle>
    <vehicle id="555" depart="222.00">
        <route edges="gneE1 gneE4 gneE9"/>
    </vehicle>
    <vehicle id="564" depart="225.60">
        <route edges="-gneE0 gneE2 gneE7"/>
    </vehicle>
    <vehicle id="569" depart="227.60">
        <route edges="-gneE10"/>
    </vehicle>
    <vehicle id="571" depart="228.40">
        <route edges="-gneE16 -gneE12 gneE10 gneE13"/>
    </vehicle>
    <vehicle id="577" depart="230.80">
        <route edges="-gneE12 -gneE9 -gneE4 -gneE1 gneE3 gneE6"/>
    </vehicle>
    <vehicle id="586" depart="234.40">
        <route edges="-gneE14 -gneE11 gneE12 gneE16"/>
    </vehicle>
    <vehicle id="587" depart="234.80">
        <route edges="-gneE0 gneE2"/>
    </vehicle>
    <vehicle id="589" depart="235.60">
        <route edges="gneE9 gneE11 gneE14"/>
    </vehicle>
    <vehicle id="591" depart="236.40">
        <route edges="-gneE2"/>
    </vehicle>
    <vehicle id="592" depart="236.80">
        <route edges="gneE9 gneE10"/>
    </vehicle>
    <vehicle id="595" depart="238.00">
        <route edges="gneE10"/>
    </vehicle>
    <vehicle id="597" depart="238.80">
        <route edges="gneE4 gneE9"/>
    </vehicle>
    <vehicle id="598" depart="239.20">
        <route edges="-gneE3"/>
    </vehicle>
    <vehicle id="600" depart="240.00">
        <route edges="gneE9"/>
    </vehicle>
    <vehicle id="602" depart="240.80">
        <route edges="-gneE3 gneE0 gneE5"/>
    </vehicle>
    <vehicle id="607" depart="242.80">
        <route edges="-gneE12 gneE10 gneE13"/>
    </vehicle>
    <vehicle id="613" depart="245.20">
        <route edges="-gneE16 -gneE12 gneE10 gneE13"/>
    </vehicle>
    <vehicle id="623" depart="249.20">
        <route edges="-gneE14 -gneE11 -gneE9 -gneE4"/>
    </vehicle>
    <vehicle id="626" depart="250.40">
        <route edges="-gneE0 gneE2"/>
    </vehicle>
    <vehicle id="627" depart="250.80">
        <route edges="-gneE3 gneE0"/>
    </vehicle>
    <vehicle id="633" depart="253.20">
        <route edges="-gneE0 gneE1 gneE4 gneE9 gneE11 gneE14"/>
    </vehicle>
    <vehicle id="635" depart="254.00">
        <route edges="-gneE12 -gneE9"/>
    </vehicle>
    <vehicle id="644" depart="257.60">
        <route edges="-gneE11 -gneE9 -gneE4 -gneE1 gneE2 gneE7"/>
    </vehicle>
    <vehicle id="654" depart="261.60">
        <route edges="-gneE7 -gneE2 gneE3"/>
    </vehicle>
    <vehicle id="655" depart="262.00">
        <route edges="-gneE11 gneE12"/>
    </vehicle>
    <vehicle id="657" depart="262.80">
        <route edges="-gneE14 -gneE11 -gneE9 -gneE4 -gneE1 gneE3 gneE6"/>
    </vehicle>
    <vehicle id="662" depart="264.80">
        <route edges="-gneE3 gneE1"/>
    </vehicle>
    <vehicle id="670" depart="268.00">
        <route edges="-gneE6 -gneE3 gneE1 gneE4 gneE9"/>
    </vehicle>
    <vehicle id="674" depart="269.60">
        <route edges="-gneE0 gneE1 gneE4 gneE9"/>
    </vehicle>
    <vehicle id="680" depart="272.00">
        <route edges="-gneE6 -gneE3 gneE1 gneE4 gneE9 gneE11"/>
    </vehicle>
    <vehicle id="682" depart="272.80">
        <route edges="-gneE6 -gneE3 gneE1 gneE4 gneE9 gneE11 gneE14"/>
    </vehicle>
    <vehicle id="684" depart="273.60">
        <route edges="-gneE16 -gneE12 -gneE9 -gneE4"/>
    </vehicle>
    <vehicle id="689" depart="275.60">
        <route edges="-gneE6 -gneE3 gneE1 gneE4 gneE9 gneE11 gneE14"/>
    </vehicle>
    <vehicle id="707" depart="282.80">
        <route edges="gneE10 gneE13"/>
    </vehicle>
    <vehicle id="711" depart="284.40">
        <route edges="gneE11"/>
    </vehicle>
    <vehicle id="720" depart="288.00">
        <route edges="-gneE1 gneE2"/>
    </vehicle>
    <vehicle id="724" depart="289.60">
        <route edges="-gneE3 gneE1 gneE4"/>
    </vehicle>
    <vehicle id="726" depart="290.40">
        <route edges="-gneE0 gneE1 gneE4 gneE9"/>
    </vehicle>
    <vehicle id="728" depart="291.20">
        <route edges="-gneE14 -gneE11 -gneE9 -gneE4 -gneE1 gneE2 gneE7"/>
    </vehicle>
    <vehicle id="733" depart="293.20">
        <route edges="-gneE11 -gneE9 -gneE4 -gneE1 gneE3"/>
    </vehicle>
    <vehicle id="734" depart="293.60">
        <route edges="-gneE5 -gneE0 gneE1 gneE4 gneE9 gneE10 gneE13"/>
    </vehicle>
    <vehicle id="735" depart="294.00">
        <route edges="-gneE5 -gneE0 gneE2"/>
    </vehicle>
    <vehicle id="743" depart="297.20">
        <route edges="-gneE2 gneE0 gneE5"/>
    </vehicle>
    <vehicle id="748" depart="299.20">
        <route edges="gneE3 gneE6"/>
    </vehicle>
    <vehicle id="754" depart="301.60">
        <route edges="gneE0"/>
    </vehicle>
    <vehicle id="757" depart="302.80">
        <route edges="-gneE4 -gneE1 gneE2 gneE7"/>
    </vehicle>
    <vehicle id="759" depart="303.60">
        <route edges="-gneE6 -gneE3 gneE0"/>
    </vehicle>
    <vehicle id="760" depart="304.00">
        <route edges="-gneE7 -gneE2 gneE0 gneE5"/>
    </vehicle>
    <vehicle id="761" depart="304.40">
        <route edges="-gneE16 -gneE12 -gneE9 -gneE4 -gneE1 gneE3 gneE6"/>
    </vehicle>
    <vehicle id="763" depart="305.20">
        <route edges="-gneE7 -gneE2 gneE0 gneE5"/>
    </vehicle>
    <vehicle id="764" depart="305.60">
        <route edges="-gneE12 gneE10 gneE13"/>
    </vehicle>
    <vehicle id="766" depart="306.40">
        <route edges="-gneE9 -gneE4 -gneE1"/>
    </vehicle>
    <vehicle id="768" depart="307.20">
        <route edges="gneE3"/>
    </vehicle>
    <vehicle id="770" depart="308.00">
        <route edges="-gneE11"/>
    </vehicle>
    <vehicle id="780" depart="312.00">
        <route edges="-gneE9 -gneE4 -gneE1 gneE2 gneE7"/>
    </vehicle>
    <vehicle id="782" depart="312.80">
        <route edges="-gneE11 -gneE9 -gneE4 -gneE1 gneE3 gneE6"/>
    </vehicle>
    <vehicle id="791" depart="316.40">
        <route edges="-gneE14 -gneE11"/>
    </vehicle>
    <vehicle id="792" depart="316.80">
        <route edges="-gneE11"/>
    </vehicle>
    <vehicle id="793" depart="317.20">
        <route edges="gneE0"/>
    </vehicle>
    <vehicle id="795" depart="318.00">
        <route edges="-gneE2"/>
    </vehicle>
    <vehicle id="799" depart="319.60">
        <route edges="-gneE14 -gneE11"/>
    </vehicle>
    <vehicle id="800" depart="320.00">
        <route edges="-gneE2 gneE3 gneE6"/>
    </vehicle>
    <vehicle id="805" depart="322.00">
        <route edges="gneE0"/>
    </vehicle>
    <vehicle id="808" depart="323.20">
        <route edges="-gneE16 -gneE12 -gneE9 -gneE4 -gneE1 gneE2 gneE7"/>
    </vehicle>
    <vehicle id="819" depart="327.60">
        <route edges="-gneE3 gneE1 gneE4 gneE9 gneE11 gneE14"/>
    </vehicle>
    <vehicle id="820" depart="328.00">
        <route edges="-gneE12 -gneE9 -gneE4 -gneE1 gneE3 gneE6"/>
    </vehicle>
    <vehicle id="822" depart="328.80">
        <route edges="-gneE11"/>
    </vehicle>
    <vehicle id="826" depart="330.40">
        <route edges="-gneE16 -gneE12 gneE10"/>
    </vehicle>
    <vehicle id="830" depart="332.00">
        <route edges="-gneE1 gneE3"/>
    </vehicle>
    <vehicle id="838" depart="335.20">
        <route edges="-gneE16 -gneE12"/>
    </vehicle>
    <vehicle id="843" depart="337.20">
        <route edges="-gneE9 -gneE4"/>
    </vehicle>
    <vehicle id="846" depart="338.40">
        <route edges="-gneE4 -gneE1 gneE2"/>
    </vehicle>
    <vehicle id="858" depart="343.20">
        <route edges="-gneE16 -gneE12 -gneE9 -gneE4 -gneE1 gneE2"/>
    </vehicle>
    <vehicle id="865" depart="346.00">
        <route edges="-gneE16 -gneE12 -gneE9 -gneE4"/>
    </vehicle>
    <vehicle id="873" depart="349.20">
        <route edges="gneE9 gneE10"/>
    </vehicle>
    <vehicle id="874" depart="349.60">
        <route edges="-gneE16 -gneE12 -gneE9 -gneE4 -gneE1 gneE2"/>
    </vehicle>
    <vehicle id="876" depart="350.40">
        <route edges="-gneE10"/>
    </vehicle>
    <vehicle id="877" depart="350.80">
        <route edges="-gneE4"/>
    </vehicle>
    <vehicle id="881" depart="352.40">
        <route edges="-gneE13 -gneE10 gneE11 gneE14"/>
    </vehicle>
    <vehicle id="883" depart="353.20">
        <route edges="-gneE3 gneE0"/>
    </vehicle>
    <vehicle id="884" depart="353.60">
        <route edges="gneE0 gneE5"/>
    </vehicle>
    <vehicle id="887" depart="354.80">
        <route edges="-gneE11 -gneE9 -gneE4 -gneE1 gneE3 gneE6"/>
    </vehicle>
    <vehicle id="893" depart="357.20">
        <route edges="-gneE16 -gneE12 -gneE9 -gneE4 -gneE1 gneE2 gneE7"/>
    </vehicle>
    <vehicle id="897" depart="358.80">
        <route edges="-gneE12 gneE10 gneE13"/>
    </vehicle>
    <vehicle id="903" depart="361.20">
        <route edges="-gneE12 gneE10"/>
    </vehicle>
    <vehicle id="912" depart="364.80">
        <route edges="-gneE0 gneE1 gneE4 gneE9 gneE10"/>
    </vehicle>
    <vehicle id="914" depart="365.60">
        <route edges="-gneE11 gneE12 gneE16"/>
    </vehicle>
    <vehicle id="915" depart="366.00">
        <route edges="-gneE5 -gneE0 gneE2"/>
    </vehicle>
    <vehicle id="916" depart="366.40">
        <route edges="-gneE10 gneE12"/>
    </vehicle>
    <vehicle id="925" depart="370.00">
        <route edges="-gneE5 -gneE0 gneE1 gneE4 gneE9 gneE10"/>
    </vehicle>
    <vehicle id="926" depart="370.40">
        <route edges="-gneE14 -gneE11 -gneE9 -gneE4 -gneE1 gneE3"/>
    </vehicle>
    <vehicle id="927" depart="370.80">
        <route edges="-gneE10 gneE11"/>
    </vehicle>
    <vehicle id="929" depart="371.60">
        <route edges="-gneE11 -gneE9 -gneE4 -gneE1"/>
    </vehicle>
    <vehicle id="930" depart="372.00">
        <route edges="-gneE4"/>
    </vehicle>
    <vehicle id="937" depart="374.80">
        <route edges="gneE0 gneE5"/>
    </vehicle>
    <vehicle id="951" depart="380.40">
        <route edges="gneE1 gneE4 gneE9 gneE11"/>
    </vehicle>
    <vehicle id="954" depart="381.60">
        <route edges="gneE12 gneE16"/>
    </vehicle>
    <vehicle id="956" depart="382.40">
        <route edges="-gneE5 -gneE0"/>
    </vehicle>
    <vehicle id="958" depart="383.20">
        <route edges="-gneE0"/>
    </vehicle>
    <vehicle id="959" depart="383.60">
        <route edges="-gneE14 -gneE11"/>
    </vehicle>
    <vehicle id="961" depart="384.40">
        <route edges="-gneE14 -gneE11"/>
    </vehicle>
    <vehicle id="964" depart="385.60">
        <route edges="-gneE2 gneE0 gneE5"/>
    </vehicle>
    <vehicle id="970" depart="388.00">
        <route edges="gneE4"/>
    </vehicle>
    <vehicle id="971" depart="388.40">
        <route edges="-gneE11 -gneE9 -gneE4 -gneE1 gneE2"/>
    </vehicle>
    <vehicle id="972" depart="388.80">
        <route edges="gneE0"/>
    </vehicle>
    <vehicle id="974" depart="389.60">
        <route edges="-gneE9 -gneE4"/>
    </vehicle>
    <vehicle id="977" depart="390.80">
        <route edges="-gneE10 gneE12"/>
    </vehicle>
    <vehicle id="981" depart="392.40">
        <route edges="-gneE5 -gneE0 gneE1 gneE4 gneE9"/>
    </vehicle>
    <vehicle id="984" depart="393.60">
        <route edges="-gneE16 -gneE12 -gneE9 -gneE4 -gneE1 gneE3 gneE6"/>
    </vehicle>
    <vehicle id="989" depart="395.60">
        <route edges="-gneE9"/>
    </vehicle>
    <vehicle id="990" depart="396.00">
        <route edges="-gneE2 gneE3 gneE6"/>
    </vehicle>
    <vehicle id="1002" depart="400.80">
        <route edges="-gneE11 -gneE9"/>
    </vehicle>
    <vehicle id="1004" depart="401.60">
        <route edges="-gneE4"/>
    </vehicle>
    <vehicle id="1005" depart="402.00">
        <route edges="-gneE14 -gneE11"/>
    </vehicle>
    <vehicle id="1011" depart="404.40">
        <route edges="-gneE10 gneE11"/>
    </vehicle>
    <vehicle id="1012" depart="404.80">
        <route edges="-gneE0 gneE1"/>
    </vehicle>
    <vehicle id="1020" depart="408.00">
        <route edges="gneE3 gneE6"/>
    </vehicle>
    <vehicle id="1031" depart="412.40">
        <route edges="-gneE11 -gneE9 -gneE4 -gneE1 gneE3 gneE6"/>
    </vehicle>
    <vehicle id="1033" depart="413.20">
        <route edges="-gneE11 -gneE9 -gneE4 -gneE1 gneE3 gneE6"/>
    </vehicle>
    <vehicle id="1034" depart="413.60">
        <route edges="-gneE11"/>
    </vehicle>
    <vehicle id="1035" depart="414.00">
        <route edges="-gneE14 -gneE11 gneE12"/>
    </vehicle>
    <vehicle id="1037" depart="414.80">
        <route edges="-gneE7 -gneE2 gneE0"/>
    </vehicle>
    <vehicle id="1038" depart="415.20">
        <route edges="-gneE16 -gneE12 -gneE9 -gneE4 -gneE1 gneE2 gneE7"/>
    </vehicle>
    <vehicle id="1044" depart="417.60">
        <route edges="gneE11"/>
    </vehicle>
    <vehicle id="1047" depart="418.80">
        <route edges="gneE9 gneE11 gneE14"/>
    </vehicle>
    <vehicle id="1048" depart="419.20">
        <route edges="-gneE5 -gneE0 gneE1 gneE4"/>
    </vehicle>
    <vehicle id="1055" depart="422.00">
        <route edges="-gneE14 -gneE11 -gneE9 -gneE4 -gneE1 gneE2 gneE7"/>
    </vehicle>
    <vehicle id="1056" depart="422.40">
        <route edges="-gneE3 gneE0 gneE5"/>
    </vehicle>
    <vehicle id="1059" depart="423.60">
        <route edges="-gneE16 -gneE12 -gneE9"/>
    </vehicle>
    <vehicle id="1065" depart="426.00">
        <route edges="-gneE16 -gneE12 -gneE9"/>
    </vehicle>
    <vehicle id="1068" depart="427.20">
        <route edges="gneE1 gneE4 gneE9 gneE11"/>
    </vehicle>
    <vehicle id="1069" depart="427.60">
        <route edges="gneE2 gneE7"/>
    </vehicle>
    <vehicle id="1072" depart="428.80">
        <route edges="-gneE0 gneE1 gneE4 gneE9"/>
    </vehicle>
    <vehicle id="1073" depart="429.20">
        <route edges="-gneE3 gneE1 gneE4 gneE9 gneE11"/>
    </vehicle>
    <vehicle id="1079" depart="431.60">
        <route edges="-gneE14 -gneE11"/>
    </vehicle>
    <vehicle id="1089" depart="435.60">
        <route edges="-gneE11 -gneE9 -gneE4 -gneE1"/>
    </vehicle>
    <vehicle id="1094" depart="437.60">
        <route edges="-gneE5 -gneE0 gneE1 gneE4"/>
    </vehicle>
    <vehicle id="1095" depart="438.00">
        <route edges="-gneE2"/>
    </vehicle>
    <vehicle id="1098" depart="439.20">
        <route edges="gneE11"/>
    </vehicle>
    <vehicle id="1099" depart="439.60">
        <route edges="-gneE6 -gneE3 gneE1 gneE4 gneE9"/>
    </vehicle>
    <vehicle id="1107" depart="442.80">
        <route edges="-gneE12 -gneE9 -gneE4 -gneE1 gneE3 gneE6"/>
    </vehicle>
    <vehicle id="1109" depart="443.60">
        <route edges="-gneE4 -gneE1 gneE2 gneE7"/>
    </vehicle>
    <vehicle id="1110" depart="444.00">
        <route edges="gneE4 gneE9 gneE11 gneE14"/>
    </vehicle>
    <vehicle id="1113" depart="445.20">
        <route edges="-gneE2 gneE3 gneE6"/>
    </vehicle>
    <vehicle id="1114" depart="445.60">
        <route edges="gneE1 gneE4 gneE9 gneE10"/>
    </vehicle>
    <vehicle id="1115" depart="446.00">
        <route edges="-gneE6 -gneE3 gneE0 gneE5"/>
    </vehicle>
    <vehicle id="1124" depart="449.60">
        <route edges="-gneE11 -gneE9 -gneE4 -gneE1 gneE2"/>
    </vehicle>
    <vehicle id="1128" depart="451.20">
        <route edges="-gneE11 -gneE9 -gneE4 -gneE1 gneE3"/>
    </vehicle>
    <vehicle id="1129" depart="451.60">
        <route edges="-gneE14 -gneE11"/>
    </vehicle>
    <vehicle id="1130" depart="452.00">