<?xml version="1.0" encoding="UTF-8"?>

<!-- generated on 2021-09-29 19:30:38 by Eclipse SUMO duarouter Version 1.9.2
<configuration xmlns:xsi="http://www.w3.org/2001/XMLSchema-instance" xsi:noNamespaceSchemaLocation="http://sumo.dlr.de/xsd/duarouterConfiguration.xsd">

    <input>
        <net-file value="/home/sonic/Desktop/nets/case03/intersection.net.xml"/>
        <route-files value="trips.trips.xml"/>
    </input>

    <output>
        <output-file value="intersection_random11.rou.xml"/>
        <alternatives-output value="intersection_random11.rou.alt.xml"/>
    </output>

    <time>
        <begin value="0"/>
        <end value="3600.0"/>
    </time>

    <report>
        <no-warnings value="true"/>
        <ignore-errors value="true"/>
        <no-step-log value="true"/>
    </report>

</configuration>
-->

<routes xmlns:xsi="http://www.w3.org/2001/XMLSchema-instance" xsi:noNamespaceSchemaLocation="http://sumo.dlr.de/xsd/routes_file.xsd">
    <vehicle id="1" depart="0.40">
        <route edges="gneE9"/>
    </vehicle>
    <vehicle id="2" depart="0.80">
        <route edges="-gneE14 -gneE11"/>
    </vehicle>
    <vehicle id="3" depart="1.20">
        <route edges="-gneE2"/>
    </vehicle>
    <vehicle id="4" depart="1.60">
        <route edges="-gneE3"/>
    </vehicle>
    <vehicle id="13" depart="5.20">
        <route edges="-gneE10 gneE12 gneE16"/>
    </vehicle>
    <vehicle id="14" depart="5.60">
        <route edges="-gneE3 gneE0"/>
    </vehicle>
    <vehicle id="17" depart="6.80">
        <route edges="gneE12"/>
    </vehicle>
    <vehicle id="43" depart="17.20">
        <route edges="gneE1 gneE4 gneE9 gneE10 gneE13"/>
    </vehicle>
    <vehicle id="47" depart="18.80">
        <route edges="-gneE3 gneE1 gneE4"/>
    </vehicle>
    <vehicle id="53" depart="21.20">
        <route edges="-gneE3 gneE0 gneE5"/>
    </vehicle>
    <vehicle id="56" depart="22.40">
        <route edges="-gneE5 -gneE0 gneE2"/>
    </vehicle>
    <vehicle id="57" depart="22.80">
        <route edges="-gneE3 gneE0"/>
    </vehicle>
    <vehicle id="61" depart="24.40">
        <route edges="-gneE0 gneE1 gneE4 gneE9 gneE10"/>
    </vehicle>
    <vehicle id="62" depart="24.80">
        <route edges="-gneE3 gneE1 gneE4 gneE9 gneE10 gneE13"/>
    </vehicle>
    <vehicle id="68" depart="27.20">
        <route edges="-gneE12 -gneE9 -gneE4 -gneE1 gneE2"/>
    </vehicle>
    <vehicle id="72" depart="28.80">
        <route edges="-gneE9 -gneE4 -gneE1 gneE2"/>
    </vehicle>
    <vehicle id="78" depart="31.20">
        <route edges="-gneE16 -gneE12"/>
    </vehicle>
    <vehicle id="85" depart="34.00">
        <route edges="gneE9"/>
    </vehicle>
    <vehicle id="90" depart="36.00">
        <route edges="-gneE5 -gneE0 gneE1 gneE4 gneE9 gneE11"/>
    </vehicle>
    <vehicle id="97" depart="38.80">
        <route edges="gneE3 gneE6"/>
    </vehicle>
    <vehicle id="98" depart="39.20">
        <route edges="-gneE11 -gneE9 -gneE4 -gneE1 gneE2"/>
    </vehicle>
    <vehicle id="99" depart="39.60">
        <route edges="gneE9 gneE10 gneE13"/>
    </vehicle>
    <vehicle id="100" depart="40.00">
        <route edges="gneE12 gneE16"/>
    </vehicle>
    <vehicle id="101" depart="40.40">
        <route edges="-gneE5 -gneE0 gneE1 gneE4 gneE9 gneE11 gneE14"/>
    </vehicle>
    <vehicle id="106" depart="42.40">
        <route edges="-gneE16 -gneE12 -gneE9 -gneE4 -gneE1"/>
    </vehicle>
    <vehicle id="110" depart="44.00">
        <route edges="-gneE11 -gneE9 -gneE4 -gneE1 gneE3 gneE6"/>
    </vehicle>
    <vehicle id="112" depart="44.80">
        <route edges="-gneE14 -gneE11 gneE12 gneE16"/>
    </vehicle>
    <vehicle id="114" depart="45.60">
        <route edges="-gneE4"/>
    </vehicle>
    <vehicle id="115" depart="46.00">
        <route edges="-gneE3"/>
    </vehicle>
    <vehicle id="121" depart="48.40">
        <route edges="-gneE16 -gneE12 gneE10 gneE13"/>
    </vehicle>
    <vehicle id="122" depart="48.80">
        <route edges="gneE4 gneE9"/>
    </vehicle>
    <vehicle id="123" depart="49.20">
        <route edges="-gneE2 gneE3 gneE6"/>
    </vehicle>
    <vehicle id="124" depart="49.60">
        <route edges="-gneE13 -gneE10 gneE12"/>
    </vehicle>
    <vehicle id="126" depart="50.40">
        <route edges="-gneE2 gneE3 gneE6"/>
    </vehicle>
    <vehicle id="132" depart="52.80">
        <route edges="-gneE12 -gneE9 -gneE4 -gneE1 gneE2 gneE7"/>
    </vehicle>
    <vehicle id="133" depart="53.20">
        <route edges="gneE4 gneE9 gneE11"/>
    </vehicle>
    <vehicle id="143" depart="57.20">
        <route edges="-gneE2 gneE3 gneE6"/>
    </vehicle>
    <vehicle id="145" depart="58.00">
        <route edges="-gneE7 -gneE2 gneE3 gneE6"/>
    </vehicle>
    <vehicle id="146" depart="58.40">
        <route edges="gneE1 gneE4 gneE9 gneE11 gneE14"/>
    </vehicle>
    <vehicle id="154" depart="61.60">
        <route edges="-gneE16 -gneE12 -gneE9"/>
    </vehicle>
    <vehicle id="161" depart="64.40">
        <route edges="gneE2"/>
    </vehicle>
    <vehicle id="168" depart="67.20">
        <route edges="-gneE5 -gneE0 gneE1"/>
    </vehicle>
    <vehicle id="175" depart="70.00">
        <route edges="-gneE4 -gneE1 gneE2 gneE7"/>
    </vehicle>
    <vehicle id="176" depart="70.40">
        <route edges="-gneE11 -gneE9 -gneE4 -gneE1 gneE3 gneE6"/>
    </vehicle>
    <vehicle id="177" depart="70.80">
        <route edges="-gneE10 gneE12"/>
    </vehicle>
    <vehicle id="181" depart="72.40">
        <route edges="-gneE11 gneE12"/>
    </vehicle>
    <vehicle id="191" depart="76.40">
        <route edges="gneE0 gneE5"/>
    </vehicle>
    <vehicle id="195" depart="78.00">
        <route edges="-gneE9"/>
    </vehicle>
    <vehicle id="202" depart="80.80">
        <route edges="-gneE4 -gneE1 gneE3"/>
    </vehicle>
    <vehicle id="206" depart="82.40">
        <route edges="-gneE13 -gneE10"/>
    </vehicle>
    <vehicle id="209" depart="83.60">
        <route edges="-gneE12 gneE10"/>
    </vehicle>
    <vehicle id="215" depart="86.00">
        <route edges="-gneE9 -gneE4 -gneE1 gneE2"/>
    </vehicle>
    <vehicle id="216" depart="86.40">
        <route edges="gneE4 gneE9 gneE10 gneE13"/>
    </vehicle>
    <vehicle id="229" depart="91.60">
        <route edges="-gneE16 -gneE12 -gneE9 -gneE4 -gneE1 gneE3"/>
    </vehicle>
    <vehicle id="231" depart="92.40">
        <route edges="-gneE16 -gneE12 -gneE9 -gneE4 -gneE1 gneE2 gneE7"/>
    </vehicle>
    <vehicle id="232" depart="92.80">
        <route edges="-gneE6 -gneE3 gneE1 gneE4 gneE9 gneE11"/>
    </vehicle>
    <vehicle id="233" depart="93.20">
        <route edges="-gneE11 -gneE9"/>
    </vehicle>
    <vehicle id="236" depart="94.40">
        <route edges="gneE12"/>
    </vehicle>
    <vehicle id="240" depart="96.00">
        <route edges="-gneE6 -gneE3 gneE1 gneE4 gneE9 gneE11"/>
    </vehicle>
    <vehicle id="254" depart="101.60">
        <route edges="-gneE6 -gneE3 gneE0"/>
    </vehicle>
    <vehicle id="261" depart="104.40">
        <route edges="-gneE4 -gneE1 gneE3"/>
    </vehicle>
    <vehicle id="265" depart="106.00">
        <route edges="-gneE12 gneE10"/>
    </vehicle>
    <vehicle id="274" depart="109.60">
        <route edges="-gneE11 -gneE9 -gneE4 -gneE1 gneE2 gneE7"/>
    </vehicle>
    <vehicle id="275" depart="110.00">
        <route edges="gneE2 gneE7"/>
    </vehicle>
    <vehicle id="278" depart="111.20">
        <route edges="-gneE2 gneE0"/>
    </vehicle>
    <vehicle id="283" depart="113.20">
        <route edges="gneE1 gneE4"/>
    </vehicle>
    <vehicle id="288" depart="115.20">
        <route edges="-gneE11 -gneE9 -gneE4 -gneE1 gneE2 gneE7"/>
    </vehicle>
    <vehicle id="292" depart="116.80">
        <route edges="-gneE5 -gneE0 gneE1 gneE4 gneE9 gneE10"/>
    </vehicle>
    <vehicle id="299" depart="119.60">
        <route edges="gneE4 gneE9 gneE10 gneE13"/>
    </vehicle>
    <vehicle id="302" depart="120.80">
        <route edges="-gneE6 -gneE3 gneE1 gneE4 gneE9"/>
    </vehicle>
    <vehicle id="304" depart="121.60">
        <route edges="-gneE5 -gneE0 gneE1 gneE4 gneE9 gneE10 gneE13"/>
    </vehicle>
    <vehicle id="305" depart="122.00">
        <route edges="-gneE1 gneE2"/>
    </vehicle>
    <vehicle id="310" depart="124.00">
        <route edges="-gneE3 gneE1 gneE4 gneE9 gneE10 gneE13"/>
    </vehicle>
    <vehicle id="311" depart="124.40">
        <route edges="gneE0 gneE5"/>
    </vehicle>
    <vehicle id="324" depart="129.60">
        <route edges="-gneE3 gneE0"/>
    </vehicle>
    <vehicle id="325" depart="130.00">
        <route edges="-gneE14 -gneE11 -gneE9 -gneE4 -gneE1 gneE3"/>
    </vehicle>
    <vehicle id="327" depart="130.80">
        <route edges="-gneE9 -gneE4 -gneE1 gneE3"/>
    </vehicle>
    <vehicle id="331" depart="132.40">
        <route edges="-gneE11 -gneE9 -gneE4 -gneE1 gneE2 gneE7"/>
    </vehicle>
    <vehicle id="332" depart="132.80">
        <route edges="-gneE7 -gneE2 gneE0"/>
    </vehicle>
    <vehicle id="339" depart="135.60">
        <route edges="-gneE7 -gneE2 gneE3 gneE6"/>
    </vehicle>
    <vehicle id="340" depart="136.00">
        <route edges="gneE1 gneE4 gneE9 gneE10 gneE13"/>
    </vehicle>
    <vehicle id="341" depart="136.40">
        <route edges="-gneE11 -gneE9 -gneE4"/>
    </vehicle>
    <vehicle id="353" depart="141.20">
        <route edges="-gneE6 -gneE3"/>
    </vehicle>
    <vehicle id="354" depart="141.60">
        <route edges="-gneE6 -gneE3 gneE1 gneE4 gneE9"/>
    </vehicle>
    <vehicle id="356" depart="142.40">
        <route edges="-gneE12 -gneE9 -gneE4 -gneE1 gneE2"/>
    </vehicle>
    <vehicle id="362" depart="144.80">
        <route edges="-gneE11 -gneE9 -gneE4 -gneE1"/>
    </vehicle>
    <vehicle id="364" depart="145.60">
        <route edges="-gneE4"/>
    </vehicle>
    <vehicle id="365" depart="146.00">
        <route edges="-gneE14 -gneE11"/>
    </vehicle>
    <vehicle id="367" depart="146.80">
        <route edges="-gneE2 gneE3 gneE6"/>
    </vehicle>
    <vehicle id="372" depart="148.80">
        <route edges="gneE0 gneE5"/>
    </vehicle>
    <vehicle id="375" depart="150.00">
        <route edges="-gneE14 -gneE11 -gneE9 -gneE4 -gneE1 gneE3 gneE6"/>
    </vehicle>
    <vehicle id="379" depart="151.60">
        <route edges="gneE4 gneE9 gneE10"/>
    </vehicle>
    <vehicle id="382" depart="152.80">
        <route edges="-gneE6 -gneE3 gneE1 gneE4 gneE9 gneE11 gneE14"/>
    </vehicle>
    <vehicle id="386" depart="154.40">
        <route edges="-gneE3"/>
    </vehicle>
    <vehicle id="387" depart="154.80">
        <route edges="-gneE6 -gneE3 gneE0"/>
    </vehicle>
    <vehicle id="399" depart="159.60">
        <route edges="-gneE9 -gneE4 -gneE1 gneE3 gneE6"/>
    </vehicle>
    <vehicle id="405" depart="162.00">
        <route edges="-gneE6 -gneE3 gneE1"/>
    </vehicle>
    <vehicle id="409" depart="163.60">
        <route edges="-gneE2 gneE3 gneE6"/>
    </vehicle>
    <vehicle id="410" depart="164.00">
        <route edges="-gneE14 -gneE11 -gneE9 -gneE4 -gneE1"/>
    </vehicle>
    <vehicle id="415" depart="166.00">
        <route edges="-gneE9 -gneE4 -gneE1 gneE3 gneE6"/>
    </vehicle>
    <vehicle id="416" depart="166.40">
        <route edges="-gneE13 -gneE10 gneE11"/>
    </vehicle>
    <vehicle id="424" depart="169.60">
        <route edges="-gneE10 gneE11 gneE14"/>
    </vehicle>
    <vehicle id="426" depart="170.40">
        <route edges="-gneE12 -gneE9 -gneE4 -gneE1 gneE3"/>
    </vehicle>
    <vehicle id="432" depart="172.80">
        <route edges="-gneE1 gneE2 gneE7"/>
    </vehicle>
    <vehicle id="436" depart="174.40">
        <route edges="-gneE16 -gneE12 -gneE9 -gneE4 -gneE1"/>
    </vehicle>
    <vehicle id="437" depart="174.80">
        <route edges="gneE4 gneE9"/>
    </vehicle>
    <vehicle id="439" depart="175.60">
        <route edges="gneE10"/>
    </vehicle>
    <vehicle id="441" depart="176.40">
        <route edges="-gneE1 gneE3"/>
    </vehicle>
    <vehicle id="449" depart="179.60">
        <route edges="-gneE10"/>
    </vehicle>
    <vehicle id="453" depart="181.20">
        <route edges="-gneE3 gneE0"/>
    </vehicle>
    <vehicle id="459" depart="183.60">
        <route edges="-gneE13 -gneE10 gneE11"/>
    </vehicle>
    <vehicle id="464" depart="185.60">
        <route edges="gneE0 gneE5"/>
    </vehicle>
    <vehicle id="465" depart="186.00">
        <route edges="-gneE6 -gneE3 gneE0"/>
    </vehicle>
    <vehicle id="472" depart="188.80">
        <route edges="gneE0"/>
    </vehicle>
    <vehicle id="474" depart="189.60">
        <route edges="gneE4 gneE9 gneE10 gneE13"/>
    </vehicle>
    <vehicle id="476" depart="190.40">
        <route edges="-gneE5 -gneE0 gneE1 gneE4 gneE9"/>
    </vehicle>
    <vehicle id="481" depart="192.40">
        <route edges="-gneE0 gneE1 gneE4 gneE9 gneE10 gneE13"/>
    </vehicle>
    <vehicle id="486" depart="194.40">
        <route edges="gneE1 gneE4 gneE9"/>
    </vehicle>
    <vehicle id="487" depart="194.80">
        <route edges="-gneE16 -gneE12 gneE10"/>
    </vehicle>
    <vehicle id="488" depart="195.20">
        <route edges="-gneE1 gneE2"/>
    </vehicle>
    <vehicle id="492" depart="196.80">
        <route edges="-gneE3 gneE1 gneE4 gneE9 gneE10"/>
    </vehicle>
    <vehicle id="495" depart="198.00">
        <route edges="gneE9 gneE10"/>
    </vehicle>
    <vehicle id="504" depart="201.60">
        <route edges="-gneE0"/>
    </vehicle>
    <vehicle id="511" depart="204.40">
        <route edges="-gneE5 -gneE0 gneE2"/>
    </vehicle>
    <vehicle id="514" depart="205.60">
        <route edges="-gneE12 gneE10"/>
    </vehicle>
    <vehicle id="517" depart="206.80">
        <route edges="gneE1"/>
    </vehicle>
    <vehicle id="518" depart="207.20">
        <route edges="-gneE16 -gneE12"/>
    </vehicle>
    <vehicle id="519" depart="207.60">
        <route edges="gneE9 gneE11"/>
    </vehicle>
    <vehicle id="522" depart="208.80">
        <route edges="-gneE7 -gneE2 gneE3 gneE6"/>
    </vehicle>
    <vehicle id="527" depart="210.80">
        <route edges="-gneE12 -gneE9 -gneE4"/>
    </vehicle>
    <vehicle id="528" depart="211.20">
        <route edges="-gneE4 -gneE1 gneE3 gneE6"/>
    </vehicle>
    <vehicle id="534" depart="213.60">
        <route edges="-gneE13 -gneE10 gneE11 gneE14"/>
    </vehicle>
    <vehicle id="540" depart="216.00">
        <route edges="-gneE6 -gneE3"/>
    </vehicle>
    <vehicle id="549" depart="219.60">
        <route edges="-gneE13 -gneE10 gneE12"/>
    </vehicle>
    <vehicle id="552" depart="220.80">
        <route edges="-gneE13 -gneE10"/>
    </vehicle>
    <vehicle id="553" depart="221.20">
        <route edges="-gneE0 gneE1 gneE4 gneE9 gneE10"/>
    </vehicle>
    <vehicle id="556" depart="222.40">
        <route edges="-gneE3 gneE1 gneE4 gneE9"/>
    </vehicle>
    <vehicle id="558" depart="223.20">
        <route edges="-gneE3 gneE0 gneE5"/>
    </vehicle>
    <vehicle id="559" depart="223.60">
        <route edges="-gneE11 -gneE9 -gneE4"/>
    </vehicle>
    <vehicle id="560" depart="224.00">
        <route edges="-gneE3"/>
    </vehicle>
    <vehicle id="564" depart="225.60">
        <route edges="-gneE9 -gneE4 -gneE1 gneE3 gneE6"/>
    </vehicle>
    <vehicle id="567" depart="226.80">
        <route edges="gneE9"/>
    </vehicle>
    <vehicle id="571" depart="228.40">
        <route edges="-gneE5 -gneE0 gneE1 gneE4 gneE9 gneE10"/>
    </vehicle>
    <vehicle id="577" depart="230.80">
        <route edges="-gneE4 -gneE1 gneE2 gneE7"/>
    </vehicle>
    <vehicle id="584" depart="233.60">
        <route edges="-gneE12 gneE10"/>
    </vehicle>
    <vehicle id="588" depart="235.20">
        <route edges="-gneE11 gneE12 gneE16"/>
    </vehicle>
    <vehicle id="590" depart="236.00">
        <route edges="gneE1 gneE4"/>
    </vehicle>
    <vehicle id="592" depart="236.80">
        <route edges="-gneE3 gneE1 gneE4 gneE9 gneE10"/>
    </vehicle>
    <vehicle id="594" depart="237.60">
        <route edges="-gneE5 -gneE0"/>
    </vehicle>
    <vehicle id="596" depart="238.40">
        <route edges="-gneE9 -gneE4 -gneE1 gneE2"/>
    </vehicle>
    <vehicle id="605" depart="242.00">
        <route edges="-gneE0 gneE1 gneE4 gneE9 gneE10"/>
    </vehicle>
    <vehicle id="608" depart="243.20">
        <route edges="gneE4 gneE9 gneE10"/>
    </vehicle>
    <vehicle id="613" depart="245.20">
        <route edges="-gneE11 -gneE9 -gneE4 -gneE1"/>
    </vehicle>
    <vehicle id="616" depart="246.40">
        <route edges="-gneE12 -gneE9 -gneE4 -gneE1 gneE3 gneE6"/>
    </vehicle>
    <vehicle id="628" depart="251.20">
        <route edges="-gneE0 gneE1"/>
    </vehicle>
    <vehicle id="630" depart="252.00">
        <route edges="-gneE12 -gneE9 -gneE4"/>
    </vehicle>
    <vehicle id="634" depart="253.60">
        <route edges="-gneE3"/>
    </vehicle>
    <vehicle id="635" depart="254.00">
        <route edges="-gneE10 gneE11 gneE14"/>
    </vehicle>
    <vehicle id="645" depart="258.00">
        <route edges="gneE0"/>
    </vehicle>
    <vehicle id="647" depart="258.80">
        <route edges="-gneE9 -gneE4"/>
    </vehicle>
    <vehicle id="649" depart="259.60">
        <route edges="-gneE13 -gneE10 gneE12"/>
    </vehicle>
    <vehicle id="652" depart="260.80">
        <route edges="gneE10"/>
    </vehicle>
    <vehicle id="654" depart="261.60">
        <route edges="-gneE13 -gneE10 gneE12 gneE16"/>
    </vehicle>
    <vehicle id="657" depart="262.80">
        <route edges="gneE1 gneE4 gneE9 gneE10 gneE13"/>
    </vehicle>
    <vehicle id="667" depart="266.80">
        <route edges="-gneE9 -gneE4 -gneE1"/>
    </vehicle>
    <vehicle id="674" depart="269.60">
        <route edges="gneE1 gneE4 gneE9 gneE10 gneE13"/>
    </vehicle>
    <vehicle id="684" depart="273.60">
        <route edges="-gneE11 -gneE9 -gneE4 -gneE1"/>
    </vehicle>
    <vehicle id="687" depart="274.80">
        <route edges="gneE11"/>
    </vehicle>
    <vehicle id="691" depart="276.40">
        <route edges="gneE2"/>
    </vehicle>
    <vehicle id="695" depart="278.00">
        <route edges="-gneE13 -gneE10 gneE11 gneE14"/>
    </vehicle>
    <vehicle id="697" depart="278.80">
        <route edges="-gneE0"/>
    </vehicle>
    <vehicle id="703" depart="281.20">
        <route edges="-gneE3 gneE1 gneE4 gneE9"/>
    </vehicle>
    <vehicle id="704" depart="281.60">
        <route edges="-gneE5 -gneE0 gneE1 gneE4 gneE9 gneE10"/>
    </vehicle>
    <vehicle id="707" depart="282.80">
        <route edges="-gneE11 -gneE9 -gneE4 -gneE1 gneE2 gneE7"/>
    </vehicle>
    <vehicle id="708" depart="283.20">
        <route edges="-gneE0 gneE2"/>
    </vehicle>
    <vehicle id="710" depart="284.00">
        <route edges="-gneE9 -gneE4"/>
    </vehicle>
    <vehicle id="711" depart="284.40">
        <route edges="-gneE11 gneE12"/>
    </vehicle>
    <vehicle id="720" depart="288.00">
        <route edges="gneE1 gneE4"/>
    </vehicle>
    <vehicle id="721" depart="288.40">
        <route edges="gneE4"/>
    </vehicle>
    <vehicle id="729" depart="291.60">
        <route edges="-gneE7 -gneE2 gneE0 gneE5"/>
    </vehicle>
    <vehicle id="732" depart="292.80">
        <route edges="-gneE11 -gneE9 -gneE4 -gneE1 gneE3 gneE6"/>
    </vehicle>
    <vehicle id="734" depart="293.60">
        <route edges="gneE12 gneE16"/>
    </vehicle>
    <vehicle id="736" depart="294.40">
        <route edges="-gneE3 gneE1 gneE4 gneE9 gneE10"/>
    </vehicle>
    <vehicle id="750" depart="300.00">
        <route edges="-gneE5 -gneE0 gneE1 gneE4 gneE9 gneE10 gneE13"/>
    </vehicle>
    <vehicle id="751" depart="300.40">
        <route edges="-gneE14 -gneE11 -gneE9 -gneE4 -gneE1 gneE2 gneE7"/>
    </vehicle>
    <vehicle id="762" depart="304.80">
        <route edges="-gneE12 -gneE9 -gneE4 -gneE1 gneE3"/>
    </vehicle>
    <vehicle id="763" depart="305.20">
        <route edges="gneE9 gneE11"/>
    </vehicle>
    <vehicle id="764" depart="305.60">
        <route edges="-gneE7 -gneE2 gneE3"/>
    </vehicle>
    <vehicle id="770" depart="308.00">
        <route edges="-gneE6 -gneE3 gneE1 gneE4"/>
    </vehicle>
    <vehicle id="771" depart="308.40">
        <route edges="gneE12 gneE16"/>
    </vehicle>
    <vehicle id="772" depart="308.80">
        <route edges="-gneE3 gneE0 gneE5"/>
    </vehicle>
    <vehicle id="774" depart="309.60">
        <route edges="-gneE2"/>
    </vehicle>
    <vehicle id="779" depart="311.60">
        <route edges="-gneE3 gneE1 gneE4"/>
    </vehicle>
    <vehicle id="781" depart="312.40">
        <route edges="-gneE0 gneE2"/>
    </vehicle>
    <vehicle id="782" depart="312.80">
        <route edges="gneE12"/>
    </vehicle>
    <vehicle id="786" depart="314.40">
        <route edges="-gneE5 -gneE0 gneE1 gneE4 gneE9 gneE11"/>
    </vehicle>
    <vehicle id="790" depart="316.00">
        <route edges="-gneE1 gneE2 gneE7"/>
    </vehicle>
    <vehicle id="794" depart="317.60">
        <route edges="-gneE13 -gneE10"/>
    </vehicle>
    <vehicle id="795" depart="318.00">
        <route edges="-gneE0 gneE1 gneE4 gneE9 gneE10"/>
    </vehicle>
    <vehicle id="800" depart="320.00">
        <route edges="-gneE5 -gneE0 gneE1 gneE4 gneE9 gneE10 gneE13"/>
    </vehicle>
    <vehicle id="801" depart="320.40">
        <route edges="-gneE11 gneE12"/>
    </vehicle>
    <vehicle id="806" depart="322.40">
        <route edges="gneE4 gneE9"/>
    </vehicle>
    <vehicle id="807" depart="322.80">
        <route edges="gneE1"/>
    </vehicle>
    <vehicle id="811" depart="324.40">
        <route edges="-gneE6 -gneE3 gneE1 gneE4"/>
    </vehicle>
    <vehicle id="816" depart="326.40">
        <route edges="-gneE6 -gneE3 gneE0 gneE5"/>
    </vehicle>
    <vehicle id="817" depart="326.80">
        <route edges="-gneE1 gneE3 gneE6"/>
    </vehicle>
    <vehicle id="818" depart="327.20">
        <route edges="-gneE2 gneE3"/>
    </vehicle>
    <vehicle id="825" depart="330.00">
        <route edges="-gneE14 -gneE11 -gneE9 -gneE4"/>
    </vehicle>
    <vehicle id="829" depart="331.60">
        <route edges="-gneE5 -gneE0 gneE2 gneE7"/>
    </vehicle>
    <vehicle id="830" depart="332.00">
        <route edges="-gneE10"/>
    </vehicle>
    <vehicle id="842" depart="336.80">
        <route edges="gneE9 gneE11 gneE14"/>
    </vehicle>
    <vehicle id="848" depart="339.20">
        <route edges="-gneE0 gneE1 gneE4 gneE9 gneE11"/>
    </vehicle>
    <vehicle id="853" depart="341.20">
        <route edges="gneE9 gneE11 gneE14"/>
    </vehicle>
    <vehicle id="857" depart="342.80">
        <route edges="gneE9 gneE11"/>
    </vehicle>
    <vehicle id="859" depart="343.60">
        <route edges="-gneE16 -gneE12 -gneE9 -gneE4"/>
    </vehicle>
    <vehicle id="863" depart="345.20">
        <route edges="-gneE16 -gneE12 gneE10 gneE13"/>
    </vehicle>
    <vehicle id="866" depart="346.40">
        <route edges="-gneE2 gneE3 gneE6"/>
    </vehicle>
    <vehicle id="872" depart="348.80">
        <route edges="gneE0"/>
    </vehicle>
    <vehicle id="877" depart="350.80">
        <route edges="-gneE10 gneE11 gneE14"/>
    </vehicle>
    <vehicle id="878" depart="351.20">
        <route edges="gneE9 gneE10 gneE13"/>
    </vehicle>
    <vehicle id="879" depart="351.60">
        <route edges="gneE4"/>
    </vehicle>
    <vehicle id="881" depart="352.40">
        <route edges="-gneE3 gneE1 gneE4 gneE9 gneE10 gneE13"/>
    </vehicle>
    <vehicle id="883" depart="353.20">
        <route edges="gneE10"/>
    </vehicle>
    <vehicle id="888" depart="355.20">
        <route edges="-gneE10 gneE11"/>
    </vehicle>
    <vehicle id="889" depart="355.60">
        <route edges="gneE1"/>
    </vehicle>
    <vehicle id="913" depart="365.20">
        <route edges="-gneE9 -gneE4 -gneE1 gneE3 gneE6"/>
    </vehicle>
    <vehicle id="916" depart="366.40">
        <route edges="gneE9 gneE11 gneE14"/>
    </vehicle>
    <vehicle id="917" depart="366.80">
        <route edges="-gneE3 gneE1 gneE4 gneE9"/>
    </vehicle>
    <vehicle id="922" depart="368.80">
        <route edges="-gneE12 -gneE9 -gneE4 -gneE1"/>
    </vehicle>
    <vehicle id="925" depart="370.00">
        <route edges="gneE9 gneE11"/>
    </vehicle>
    <vehicle id="928" depart="371.20">
        <route edges="-gneE14 -gneE11 -gneE9 -gneE4 -gneE1"/>
    </vehicle>
    <vehicle id="931" depart="372.40">
        <route edges="gneE9 gneE11 gneE14"/>
    </vehicle>
    <vehicle id="932" depart="372.80">
        <route edges="-gneE12 -gneE9 -gneE4 -gneE1 gneE3"/>
    </vehicle>
    <vehicle id="934" depart="373.60">
        <route edges="-gneE12 gneE10"/>
    </vehicle>
    <vehicle id="941" depart="376.40">
        <route edges="-gneE3 gneE1 gneE4 gneE9 gneE11"/>
    </vehicle>
    <vehicle id="952" depart="380.80">
        <route edges="-gneE12 -gneE9 -gneE4 -gneE1 gneE3 gneE6"/>
    </vehicle>
    <vehicle id="953" depart="381.20">
        <route edges="gneE3"/>
    </vehicle>
    <vehicle id="957" depart="382.80">
        <route edges="-gneE11 -gneE9 -gneE4 -gneE1 gneE3"/>
    </vehicle>
    <vehicle id="958" depart="383.20">
        <route edges="-gneE5 -gneE0 gneE1 gneE4 gneE9 gneE11 gneE14"/>
    </vehicle>
    <vehicle id="959" depart="383.60">
        <route edges="-gneE6 -gneE3 gneE1 gneE4 gneE9 gneE11 gneE14"/>
    </vehicle>
    <vehicle id="960" depart="384.00">
        <route edges="-gneE5 -gneE0 gneE1 gneE4"/>
    </vehicle>
    <vehicle id="963" depart="385.20">
        <route edges="-gneE13 -gneE10"/>
    </vehicle>
    <vehicle id="964" depart="385.60">
        <route edges="-gneE12 -gneE9 -gneE4"/>
    </vehicle>
    <vehicle id="965" depart="386.00">
        <route edges="-gneE6 -gneE3 gneE1 gneE4"/>
    </vehicle>
    <vehicle id="969" depart="387.60">
        <route edges="-gneE4 -gneE1 gneE3"/>
    </vehicle>
    <vehicle id="972" depart="388.80">
        <route edges="-gneE14 -gneE11"/>
    </vehicle>
    <vehicle id="977" depart="390.80">
        <route edges="-gneE9 -gneE4 -gneE1"/>
    </vehicle>
    <vehicle id="981" depart="392.40">
        <route edges="-gneE16 -gneE12 -gneE9 -gneE4 -gneE1 gneE2"/>
    </vehicle>
    <vehicle id="982" depart="392.80">
        <route edges="-gneE6 -gneE3 gneE0"/>
    </vehicle>
    <vehicle id="984" depart="393.60">
        <route edges="-gneE16 -gneE12 -gneE9 -gneE4 -gneE1 gneE3 gneE6"/>
    </vehicle>
    <vehicle id="986" depart="394.40">
        <route edges="gneE1 gneE4 gneE9 gneE10 gneE13"/>
    </vehicle>
    <vehicle id="990" depart="396.00">
        <route edges="-gneE0 gneE2 gneE7"/>
    </vehicle>
    <vehicle id="997" depart="398.80">
        <route edges="gneE12"/>
    </vehicle>
    <vehicle id="998" depart="399.20">
        <route edges="-gneE11 -gneE9 -gneE4 -gneE1 gneE3"/>
    </vehicle>
    <vehicle id="1001" depart="400.40">
        <route edges="-gneE12 -gneE9 -gneE4 -gneE1 gneE2 gneE7"/>
    </vehicle>
    <vehicle id="1003" depart="401.20">
        <route edges="-gneE0 gneE2 gneE7"/>
    </vehicle>
    <vehicle id="1022" depart="408.80">
        <route edges="gneE4 gneE9 gneE10 gneE13"/>
    </vehicle>
    <vehicle id="1023" depart="409.20">
        <route edges="-gneE3 gneE1 gneE4 gneE9 gneE11"/>
    </vehicle>
    <vehicle id="1035" depart="414.00">
        <route edges="gneE4 gneE9 gneE10"/>
    </vehicle>
    <vehicle id="1040" depart="416.00">
        <route edges="-gneE10 gneE11 gneE14"/>
    </vehicle>
    <vehicle id="1045" depart="418.00">
        <route edges="-gneE14 -gneE11 gneE12 gneE16"/>
    </vehicle>
    <vehicle id="1046" depart="418.40">
        <route edges="-gneE7 -gneE2 gneE3"/>
    </vehicle>
    <vehicle id="1055" depart="422.00">
        <route edges="-gneE11 gneE12 gneE16"/>
    </vehicle>
    <vehicle id="1056" depart="422.40">
        <route edges="-gneE13 -gneE10"/>
    </vehicle>
    <vehicle id="1060" depart="424.00">
        <route edges="-gneE1 gneE3"/>
    </vehicle>
    <vehicle id="1073" depart="429.20">
        <route edges="gneE11"/>
    </vehicle>
    <vehicle id="1076" depart="430.40">
        <route edges="-gneE11"/>
    </vehicle>
    <vehicle id="1078" depart="431.20">
        <route edges="gneE2 gneE7"/>
    </vehicle>
    <vehicle id="1081" depart="432.40">
        <route edges="-gneE6 -gneE3 gneE1"/>
    </vehicle>
    <vehicle id="1089" depart="435.60">
        <route edges="gneE10"/>
    </vehicle>
    <vehicle id="1095" depart="438.00">
        <route edges="-gneE14 -gneE11 -gneE9 -gneE4 -gneE1 gneE3"/>
    </vehicle>
    <vehicle id="1096" depart="438.40">
        <route edges="-gneE0 gneE1 gneE4 gneE9 gneE10 gneE13"/>
    </vehicle>
    <vehicle id="1100" depart="440.00">
        <route edges="-gneE5 -gneE0 gneE2"/>
    </vehicle>
    <vehicle id="1102" depart="440.80">
        <route edges="-gneE2 gneE3"/>
    </vehicle>
    <vehicle id="1106" depart="442.40">
        <route edges="gneE3"/>
    </vehicle>
    <vehicle id="1109" depart="443.60">
        <route edges="-gneE14 -gneE11 -gneE9"/>
    </vehicle>
    <vehicle id="1112" depart="444.80">
        <route edges="-gneE4 -gneE1"/>
    </vehicle>
    <vehicle id="1113" depart="445.20">
        <route edges="-gneE11 -gneE9 -gneE4 -gneE1"/>
    </vehicle>
    <vehicle id="1114" depart="445.60">
        <route edges="-gneE3 gneE1 gneE4 gneE9 gneE11 gneE14"/>
    </vehicle>
    <vehicle id="1117" depart="446.80">
        <route edges="-gneE3 gneE1 gneE4 gneE9 gneE11 gneE14"/>
    </vehicle>
    <vehicle id="1128" depart="451.20">
        <route edges="-gneE9 -gneE4 -gneE1 gneE2 gneE7"/>
    </vehicle>
    <vehicle id="1133" depart="453.20">
        <route edges="-gneE3 gneE1 gneE4 gneE9"/>
    </vehicle>
    <vehicle id="1134" depart="453.60">
        <route edges="-gneE16 -gneE12 gneE10"/>
    </vehicle>
    <vehicle id="1137" depart="454.80">
        <route edges="-gneE13 -gneE10 gneE11"/>
    </vehicle>
    <vehicle id="1143" depart="457.20">
        <route edges="-gneE1 gneE2 gneE7"/>
    </vehicle>
    <vehicle id="1146" depart="458.40">
        <route edges="-gneE14 -gneE11 -gneE9 -gneE4 -gneE1 gneE3"/>