<?xml version="1.0" encoding="UTF-8"?>

<!-- generated on 2021-09-29 19:30:46 by Eclipse SUMO duarouter Version 1.9.2
<configuration xmlns:xsi="http://www.w3.org/2001/XMLSchema-instance" xsi:noNamespaceSchemaLocation="http://sumo.dlr.de/xsd/duarouterConfiguration.xsd">

    <input>
        <net-file value="/home/sonic/Desktop/nets/case03/intersection.net.xml"/>
        <route-files value="trips.trips.xml"/>
    </input>

    <output>
        <output-file value="intersection_random28.rou.xml"/>
        <alternatives-output value="intersection_random28.rou.alt.xml"/>
    </output>

    <time>
        <begin value="0"/>
        <end value="3600.0"/>
    </time>

    <report>
        <no-warnings value="true"/>
        <ignore-errors value="true"/>
        <no-step-log value="true"/>
    </report>

</configuration>
-->

<routes xmlns:xsi="http://www.w3.org/2001/XMLSchema-instance" xsi:noNamespaceSchemaLocation="http://sumo.dlr.de/xsd/routes_file.xsd">
    <vehicle id="3" depart="1.20">
        <route edges="-gneE11 -gneE9 -gneE4 -gneE1 gneE2 gneE7"/>
    </vehicle>
    <vehicle id="9" depart="3.60">
        <route edges="-gneE9 -gneE4 -gneE1 gneE2 gneE7"/>
    </vehicle>
    <vehicle id="10" depart="4.00">
        <route edges="-gneE13 -gneE10 gneE11 gneE14"/>
    </vehicle>
    <vehicle id="13" depart="5.20">
        <route edges="-gneE11 -gneE9 -gneE4 -gneE1 gneE3"/>
    </vehicle>
    <vehicle id="15" depart="6.00">
        <route edges="-gneE7 -gneE2 gneE3 gneE6"/>
    </vehicle>
    <vehicle id="16" depart="6.40">
        <route edges="-gneE6 -gneE3 gneE1 gneE4 gneE9 gneE10"/>
    </vehicle>
    <vehicle id="17" depart="6.80">
        <route edges="-gneE10 gneE12 gneE16"/>
    </vehicle>
    <vehicle id="28" depart="11.20">
        <route edges="gneE2 gneE7"/>
    </vehicle>
    <vehicle id="33" depart="13.20">
        <route edges="-gneE3 gneE1 gneE4 gneE9 gneE11 gneE14"/>
    </vehicle>
    <vehicle id="35" depart="14.00">
        <route edges="-gneE11 -gneE9 -gneE4 -gneE1 gneE3"/>
    </vehicle>
    <vehicle id="43" depart="17.20">
        <route edges="-gneE13 -gneE10 gneE12"/>
    </vehicle>
    <vehicle id="45" depart="18.00">
        <route edges="-gneE10 gneE12 gneE16"/>
    </vehicle>
    <vehicle id="47" depart="18.80">
        <route edges="-gneE3 gneE0"/>
    </vehicle>
    <vehicle id="48" depart="19.20">
        <route edges="-gneE13 -gneE10 gneE11"/>
    </vehicle>
    <vehicle id="49" depart="19.60">
        <route edges="-gneE12 -gneE9"/>
    </vehicle>
    <vehicle id="60" depart="24.00">
        <route edges="-gneE6 -gneE3 gneE1"/>
    </vehicle>
    <vehicle id="63" depart="25.20">
        <route edges="-gneE13 -gneE10"/>
    </vehicle>
    <vehicle id="68" depart="27.20">
        <route edges="-gneE13 -gneE10 gneE12"/>
    </vehicle>
    <vehicle id="69" depart="27.60">
        <route edges="-gneE16 -gneE12 -gneE9 -gneE4"/>
    </vehicle>
    <vehicle id="74" depart="29.60">
        <route edges="-gneE9 -gneE4"/>
    </vehicle>
    <vehicle id="76" depart="30.40">
        <route edges="-gneE2 gneE0 gneE5"/>
    </vehicle>
    <vehicle id="81" depart="32.40">
        <route edges="-gneE12 -gneE9 -gneE4 -gneE1"/>
    </vehicle>
    <vehicle id="85" depart="34.00">
        <route edges="gneE2"/>
    </vehicle>
    <vehicle id="87" depart="34.80">
        <route edges="-gneE9 -gneE4 -gneE1 gneE2 gneE7"/>
    </vehicle>
    <vehicle id="92" depart="36.80">
        <route edges="-gneE13 -gneE10 gneE12 gneE16"/>
    </vehicle>
    <vehicle id="95" depart="38.00">
        <route edges="-gneE9 -gneE4 -gneE1 gneE2 gneE7"/>
    </vehicle>
    <vehicle id="98" depart="39.20">
        <route edges="-gneE3 gneE1 gneE4 gneE9 gneE10 gneE13"/>
    </vehicle>
    <vehicle id="103" depart="41.20">
        <route edges="-gneE0 gneE1 gneE4 gneE9"/>
    </vehicle>
    <vehicle id="106" depart="42.40">
        <route edges="-gneE0"/>
    </vehicle>
    <vehicle id="107" depart="42.80">
        <route edges="-gneE9"/>
    </vehicle>
    <vehicle id="113" depart="45.20">
        <route edges="gneE10 gneE13"/>
    </vehicle>
    <vehicle id="115" depart="46.00">
        <route edges="gneE11"/>
    </vehicle>
    <vehicle id="117" depart="46.80">
        <route edges="gneE1 gneE4 gneE9 gneE11 gneE14"/>
    </vehicle>
    <vehicle id="119" depart="47.60">
        <route edges="-gneE11 -gneE9 -gneE4 -gneE1"/>
    </vehicle>
    <vehicle id="125" depart="50.00">
        <route edges="-gneE3 gneE1 gneE4 gneE9 gneE10 gneE13"/>
    </vehicle>
    <vehicle id="127" depart="50.80">
        <route edges="-gneE16 -gneE12 gneE10"/>
    </vehicle>
    <vehicle id="131" depart="52.40">
        <route edges="-gneE0 gneE2"/>
    </vehicle>
    <vehicle id="133" depart="53.20">
        <route edges="-gneE3 gneE1 gneE4 gneE9"/>
    </vehicle>
    <vehicle id="134" depart="53.60">
        <route edges="gneE10 gneE13"/>
    </vehicle>
    <vehicle id="139" depart="55.60">
        <route edges="-gneE16 -gneE12 -gneE9 -gneE4 -gneE1 gneE3 gneE6"/>
    </vehicle>
    <vehicle id="140" depart="56.00">
        <route edges="-gneE14 -gneE11 -gneE9"/>
    </vehicle>
    <vehicle id="143" depart="57.20">
        <route edges="gneE4 gneE9 gneE10"/>
    </vehicle>
    <vehicle id="145" depart="58.00">
        <route edges="-gneE16 -gneE12 -gneE9 -gneE4 -gneE1 gneE3 gneE6"/>
    </vehicle>
    <vehicle id="146" depart="58.40">
        <route edges="-gneE12 -gneE9 -gneE4 -gneE1 gneE2"/>
    </vehicle>
    <vehicle id="152" depart="60.80">
        <route edges="-gneE6 -gneE3 gneE1"/>
    </vehicle>
    <vehicle id="154" depart="61.60">
        <route edges="-gneE11 -gneE9 -gneE4 -gneE1 gneE2"/>
    </vehicle>
    <vehicle id="158" depart="63.20">
        <route edges="-gneE9 -gneE4 -gneE1 gneE2 gneE7"/>
    </vehicle>
    <vehicle id="160" depart="64.00">
        <route edges="-gneE0 gneE1 gneE4 gneE9 gneE10 gneE13"/>
    </vehicle>
    <vehicle id="163" depart="65.20">
        <route edges="-gneE11 gneE12 gneE16"/>
    </vehicle>
    <vehicle id="165" depart="66.00">
        <route edges="-gneE10 gneE11 gneE14"/>
    </vehicle>
    <vehicle id="170" depart="68.00">
        <route edges="gneE1 gneE4 gneE9 gneE10 gneE13"/>
    </vehicle>
    <vehicle id="178" depart="71.20">
        <route edges="-gneE9"/>
    </vehicle>
    <vehicle id="179" depart="71.60">
        <route edges="-gneE0 gneE1 gneE4 gneE9 gneE11"/>
    </vehicle>
    <vehicle id="180" depart="72.00">
        <route edges="-gneE13 -gneE10"/>
    </vehicle>
    <vehicle id="181" depart="72.40">
        <route edges="-gneE6 -gneE3 gneE1 gneE4 gneE9 gneE10 gneE13"/>
    </vehicle>
    <vehicle id="182" depart="72.80">
        <route edges="-gneE6 -gneE3 gneE1 gneE4 gneE9 gneE10"/>
    </vehicle>
    <vehicle id="197" depart="78.80">
        <route edges="-gneE0 gneE1"/>
    </vehicle>
    <vehicle id="198" depart="79.20">
        <route edges="gneE1 gneE4 gneE9 gneE11 gneE14"/>
    </vehicle>
    <vehicle id="199" depart="79.60">
        <route edges="-gneE12 -gneE9"/>
    </vehicle>
    <vehicle id="203" depart="81.20">
        <route edges="-gneE6 -gneE3 gneE1"/>
    </vehicle>
    <vehicle id="208" depart="83.20">
        <route edges="-gneE5 -gneE0 gneE1 gneE4 gneE9 gneE10"/>
    </vehicle>
    <vehicle id="211" depart="84.40">
        <route edges="-gneE5 -gneE0 gneE1"/>
    </vehicle>
    <vehicle id="212" depart="84.80">
        <route edges="-gneE2"/>
    </vehicle>
    <vehicle id="218" depart="87.20">
        <route edges="-gneE14 -gneE11 -gneE9 -gneE4 -gneE1 gneE3"/>
    </vehicle>
    <vehicle id="219" depart="87.60">
        <route edges="-gneE2 gneE0 gneE5"/>
    </vehicle>
    <vehicle id="229" depart="91.60">
        <route edges="gneE9 gneE10 gneE13"/>
    </vehicle>
    <vehicle id="232" depart="92.80">
        <route edges="-gneE11 -gneE9 -gneE4 -gneE1 gneE3 gneE6"/>
    </vehicle>
    <vehicle id="233" depart="93.20">
        <route edges="-gneE3 gneE1 gneE4 gneE9 gneE10 gneE13"/>
    </vehicle>
    <vehicle id="243" depart="97.20">
        <route edges="gneE9 gneE11 gneE14"/>
    </vehicle>
    <vehicle id="247" depart="98.80">
        <route edges="-gneE6 -gneE3 gneE0 gneE5"/>
    </vehicle>
    <vehicle id="250" depart="100.00">
        <route edges="gneE4 gneE9 gneE10 gneE13"/>
    </vehicle>
    <vehicle id="256" depart="102.40">
        <route edges="gneE3 gneE6"/>
    </vehicle>
    <vehicle id="260" depart="104.00">
        <route edges="gneE2"/>
    </vehicle>
    <vehicle id="265" depart="106.00">
        <route edges="-gneE6 -gneE3 gneE0"/>
    </vehicle>
    <vehicle id="271" depart="108.40">
        <route edges="-gneE3 gneE1"/>
    </vehicle>
    <vehicle id="285" depart="114.00">
        <route edges="-gneE7 -gneE2 gneE3"/>
    </vehicle>
    <vehicle id="300" depart="120.00">
        <route edges="-gneE4 -gneE1"/>
    </vehicle>
    <vehicle id="307" depart="122.80">
        <route edges="-gneE12 gneE10"/>
    </vehicle>
    <vehicle id="309" depart="123.60">
        <route edges="-gneE14 -gneE11 gneE12"/>
    </vehicle>
    <vehicle id="311" depart="124.40">
        <route edges="-gneE5 -gneE0 gneE1 gneE4"/>
    </vehicle>
    <vehicle id="322" depart="128.80">
        <route edges="-gneE14 -gneE11 -gneE9 -gneE4 -gneE1 gneE2 gneE7"/>
    </vehicle>
    <vehicle id="323" depart="129.20">
        <route edges="-gneE3 gneE0 gneE5"/>
    </vehicle>
    <vehicle id="326" depart="130.40">
        <route edges="-gneE10"/>
    </vehicle>
    <vehicle id="327" depart="130.80">
        <route edges="-gneE7 -gneE2 gneE0 gneE5"/>
    </vehicle>
    <vehicle id="328" depart="131.20">
        <route edges="-gneE6 -gneE3 gneE1 gneE4 gneE9"/>
    </vehicle>
    <vehicle id="329" depart="131.60">
        <route edges="gneE4 gneE9 gneE10"/>
    </vehicle>
    <vehicle id="335" depart="134.00">
        <route edges="-gneE12 -gneE9"/>
    </vehicle>
    <vehicle id="336" depart="134.40">
        <route edges="-gneE7 -gneE2"/>
    </vehicle>
    <vehicle id="337" depart="134.80">
        <route edges="-gneE1 gneE2"/>
    </vehicle>
    <vehicle id="346" depart="138.40">
        <route edges="gneE2"/>
    </vehicle>
    <vehicle id="347" depart="138.80">
        <route edges="-gneE11 -gneE9 -gneE4 -gneE1 gneE3"/>
    </vehicle>
    <vehicle id="352" depart="140.80">
        <route edges="-gneE12 gneE10"/>
    </vehicle>
    <vehicle id="354" depart="141.60">
        <route edges="gneE4 gneE9 gneE11 gneE14"/>
    </vehicle>
    <vehicle id="357" depart="142.80">
        <route edges="-gneE0 gneE1 gneE4 gneE9"/>
    </vehicle>
    <vehicle id="358" depart="143.20">
        <route edges="-gneE5 -gneE0 gneE1"/>
    </vehicle>
    <vehicle id="361" depart="144.40">
        <route edges="-gneE11 -gneE9 -gneE4 -gneE1 gneE3 gneE6"/>
    </vehicle>
    <vehicle id="365" depart="146.00">
        <route edges="-gneE1 gneE3"/>
    </vehicle>
    <vehicle id="368" depart="147.20">
        <route edges="-gneE6 -gneE3 gneE0 gneE5"/>
    </vehicle>
    <vehicle id="372" depart="148.80">
        <route edges="-gneE12 -gneE9 -gneE4 -gneE1 gneE2 gneE7"/>
    </vehicle>
    <vehicle id="378" depart="151.20">
        <route edges="-gneE16 -gneE12 -gneE9 -gneE4 -gneE1 gneE3 gneE6"/>
    </vehicle>
    <vehicle id="388" depart="155.20">
        <route edges="gneE1 gneE4 gneE9 gneE10 gneE13"/>
    </vehicle>
    <vehicle id="401" depart="160.40">
        <route edges="gneE1 gneE4 gneE9 gneE10"/>
    </vehicle>
    <vehicle id="405" depart="162.00">
        <route edges="-gneE14 -gneE11 -gneE9 -gneE4 -gneE1 gneE3 gneE6"/>
    </vehicle>
    <vehicle id="423" depart="169.20">
        <route edges="-gneE7 -gneE2 gneE0 gneE5"/>
    </vehicle>
    <vehicle id="428" depart="171.20">
        <route edges="-gneE9 -gneE4 -gneE1 gneE3"/>
    </vehicle>
    <vehicle id="433" depart="173.20">
        <route edges="-gneE5 -gneE0 gneE2"/>
    </vehicle>
    <vehicle id="434" depart="173.60">
        <route edges="gneE9 gneE11"/>
    </vehicle>
    <vehicle id="436" depart="174.40">
        <route edges="-gneE16 -gneE12"/>
    </vehicle>
    <vehicle id="438" depart="175.20">
        <route edges="-gneE16 -gneE12 -gneE9 -gneE4 -gneE1 gneE2 gneE7"/>
    </vehicle>
    <vehicle id="444" depart="177.60">
        <route edges="-gneE12 -gneE9 -gneE4 -gneE1"/>
    </vehicle>
    <vehicle id="445" depart="178.00">
        <route edges="-gneE12 -gneE9 -gneE4 -gneE1 gneE3 gneE6"/>
    </vehicle>
    <vehicle id="447" depart="178.80">
        <route edges="-gneE1"/>
    </vehicle>
    <vehicle id="461" depart="184.40">
        <route edges="gneE9 gneE10"/>
    </vehicle>
    <vehicle id="463" depart="185.20">
        <route edges="-gneE3 gneE1 gneE4 gneE9"/>
    </vehicle>
    <vehicle id="468" depart="187.20">
        <route edges="-gneE14 -gneE11"/>
    </vehicle>
    <vehicle id="469" depart="187.60">
        <route edges="-gneE3 gneE1 gneE4 gneE9 gneE11"/>
    </vehicle>
    <vehicle id="471" depart="188.40">
        <route edges="-gneE2 gneE0 gneE5"/>
    </vehicle>
    <vehicle id="472" depart="188.80">
        <route edges="-gneE7 -gneE2 gneE3 gneE6"/>
    </vehicle>
    <vehicle id="473" depart="189.20">
        <route edges="-gneE14 -gneE11"/>
    </vehicle>
    <vehicle id="474" depart="189.60">
        <route edges="-gneE0 gneE1 gneE4 gneE9 gneE11 gneE14"/>
    </vehicle>
    <vehicle id="479" depart="191.60">
        <route edges="-gneE6 -gneE3 gneE1 gneE4 gneE9 gneE10"/>
    </vehicle>
    <vehicle id="485" depart="194.00">
        <route edges="gneE9"/>
    </vehicle>
    <vehicle id="488" depart="195.20">
        <route edges="-gneE3 gneE1 gneE4"/>
    </vehicle>
    <vehicle id="489" depart="195.60">
        <route edges="-gneE11 -gneE9 -gneE4 -gneE1 gneE3 gneE6"/>
    </vehicle>
    <vehicle id="499" depart="199.60">
        <route edges="-gneE14 -gneE11 -gneE9 -gneE4 -gneE1 gneE2 gneE7"/>
    </vehicle>
    <vehicle id="500" depart="200.00">
        <route edges="gneE1"/>
    </vehicle>
    <vehicle id="507" depart="202.80">
        <route edges="-gneE5 -gneE0"/>
    </vehicle>
    <vehicle id="508" depart="203.20">
        <route edges="gneE2 gneE7"/>
    </vehicle>
    <vehicle id="509" depart="203.60">
        <route edges="-gneE6 -gneE3 gneE0 gneE5"/>
    </vehicle>
    <vehicle id="512" depart="204.80">
        <route edges="-gneE11 gneE12 gneE16"/>
    </vehicle>
    <vehicle id="514" depart="205.60">
        <route edges="gneE9 gneE10"/>
    </vehicle>
    <vehicle id="524" depart="209.60">
        <route edges="-gneE11 -gneE9 -gneE4 -gneE1 gneE3"/>
    </vehicle>
    <vehicle id="531" depart="212.40">
        <route edges="-gneE14 -gneE11"/>
    </vehicle>
    <vehicle id="536" depart="214.40">
        <route edges="-gneE0 gneE1"/>
    </vehicle>
    <vehicle id="545" depart="218.00">
        <route edges="gneE0"/>
    </vehicle>
    <vehicle id="546" depart="218.40">
        <route edges="gneE9"/>
    </vehicle>
    <vehicle id="547" depart="218.80">
        <route edges="-gneE3 gneE1 gneE4"/>
    </vehicle>
    <vehicle id="556" depart="222.40">
        <route edges="gneE4 gneE9 gneE10 gneE13"/>
    </vehicle>
    <vehicle id="557" depart="222.80">
        <route edges="-gneE11 gneE12 gneE16"/>
    </vehicle>
    <vehicle id="564" depart="225.60">
        <route edges="-gneE11 -gneE9 -gneE4 -gneE1 gneE3"/>
    </vehicle>
    <vehicle id="566" depart="226.40">
        <route edges="-gneE7 -gneE2 gneE0 gneE5"/>
    </vehicle>
    <vehicle id="572" depart="228.80">
        <route edges="-gneE5 -gneE0 gneE1"/>
    </vehicle>
    <vehicle id="573" depart="229.20">
        <route edges="gneE0"/>
    </vehicle>
    <vehicle id="576" depart="230.40">
        <route edges="gneE11 gneE14"/>
    </vehicle>
    <vehicle id="578" depart="231.20">
        <route edges="-gneE11 -gneE9 -gneE4 -gneE1"/>
    </vehicle>
    <vehicle id="580" depart="232.00">
        <route edges="gneE9"/>
    </vehicle>
    <vehicle id="582" depart="232.80">
        <route edges="-gneE12 -gneE9 -gneE4 -gneE1 gneE2"/>
    </vehicle>
    <vehicle id="591" depart="236.40">
        <route edges="gneE4 gneE9 gneE10"/>
    </vehicle>
    <vehicle id="593" depart="237.20">
        <route edges="-gneE14 -gneE11 gneE12 gneE16"/>
    </vehicle>
    <vehicle id="596" depart="238.40">
        <route edges="-gneE14 -gneE11 gneE12"/>
    </vehicle>
    <vehicle id="600" depart="240.00">
        <route edges="-gneE7 -gneE2"/>
    </vehicle>
    <vehicle id="602" depart="240.80">
        <route edges="-gneE16 -gneE12 gneE10 gneE13"/>
    </vehicle>
    <vehicle id="607" depart="242.80">
        <route edges="gneE4 gneE9 gneE11"/>
    </vehicle>
    <vehicle id="609" depart="243.60">
        <route edges="-gneE2 gneE0 gneE5"/>
    </vehicle>
    <vehicle id="626" depart="250.40">
        <route edges="-gneE14 -gneE11 gneE12"/>
    </vehicle>
    <vehicle id="635" depart="254.00">
        <route edges="-gneE4"/>
    </vehicle>
    <vehicle id="636" depart="254.40">
        <route edges="-gneE5 -gneE0 gneE2"/>
    </vehicle>
    <vehicle id="639" depart="255.60">
        <route edges="-gneE5 -gneE0 gneE2 gneE7"/>
    </vehicle>
    <vehicle id="643" depart="257.20">
        <route edges="-gneE4 -gneE1"/>
    </vehicle>
    <vehicle id="645" depart="258.00">
        <route edges="-gneE16 -gneE12 gneE10 gneE13"/>
    </vehicle>
    <vehicle id="647" depart="258.80">
        <route edges="-gneE9 -gneE4 -gneE1 gneE3"/>
    </vehicle>
    <vehicle id="648" depart="259.20">
        <route edges="-gneE16 -gneE12 -gneE9 -gneE4 -gneE1"/>
    </vehicle>
    <vehicle id="660" depart="264.00">
        <route edges="-gneE6 -gneE3 gneE1"/>
    </vehicle>
    <vehicle id="661" depart="264.40">
        <route edges="-gneE9 -gneE4"/>
    </vehicle>
    <vehicle id="668" depart="267.20">
        <route edges="-gneE6 -gneE3"/>
    </vehicle>
    <vehicle id="674" depart="269.60">
        <route edges="gneE9 gneE11"/>
    </vehicle>
    <vehicle id="683" depart="273.20">
        <route edges="-gneE1 gneE3"/>
    </vehicle>
    <vehicle id="684" depart="273.60">
        <route edges="-gneE1 gneE3"/>
    </vehicle>
    <vehicle id="690" depart="276.00">
        <route edges="-gneE7 -gneE2"/>
    </vehicle>
    <vehicle id="691" depart="276.40">
        <route edges="-gneE1 gneE2 gneE7"/>
    </vehicle>
    <vehicle id="696" depart="278.40">
        <route edges="gneE4 gneE9 gneE10 gneE13"/>
    </vehicle>
    <vehicle id="703" depart="281.20">
        <route edges="gneE0 gneE5"/>
    </vehicle>
    <vehicle id="708" depart="283.20">
        <route edges="-gneE12"/>
    </vehicle>
    <vehicle id="711" depart="284.40">
        <route edges="-gneE5 -gneE0 gneE1 gneE4 gneE9 gneE10"/>
    </vehicle>
    <vehicle id="717" depart="286.80">
        <route edges="-gneE14 -gneE11 -gneE9"/>
    </vehicle>
    <vehicle id="721" depart="288.40">
        <route edges="gneE12"/>
    </vehicle>
    <vehicle id="726" depart="290.40">
        <route edges="-gneE0 gneE1 gneE4 gneE9 gneE11"/>
    </vehicle>
    <vehicle id="730" depart="292.00">
        <route edges="-gneE12 -gneE9 -gneE4 -gneE1 gneE2"/>
    </vehicle>
    <vehicle id="732" depart="292.80">
        <route edges="gneE1 gneE4"/>
    </vehicle>
    <vehicle id="735" depart="294.00">
        <route edges="gneE12 gneE16"/>
    </vehicle>
    <vehicle id="740" depart="296.00">
        <route edges="-gneE5 -gneE0 gneE2 gneE7"/>
    </vehicle>
    <vehicle id="742" depart="296.80">
        <route edges="-gneE16 -gneE12 -gneE9 -gneE4 -gneE1 gneE3"/>
    </vehicle>
    <vehicle id="743" depart="297.20">
        <route edges="-gneE12 -gneE9 -gneE4 -gneE1 gneE3 gneE6"/>
    </vehicle>
    <vehicle id="744" depart="297.60">
        <route edges="-gneE12 -gneE9 -gneE4 -gneE1"/>
    </vehicle>
    <vehicle id="747" depart="298.80">
        <route edges="-gneE2 gneE0"/>
    </vehicle>
    <vehicle id="748" depart="299.20">
        <route edges="gneE3 gneE6"/>
    </vehicle>
    <vehicle id="751" depart="300.40">
        <route edges="gneE4 gneE9 gneE10"/>
    </vehicle>
    <vehicle id="752" depart="300.80">
        <route edges="-gneE5 -gneE0 gneE1"/>
    </vehicle>
    <vehicle id="761" depart="304.40">
        <route edges="-gneE11"/>
    </vehicle>
    <vehicle id="765" depart="306.00">
        <route edges="gneE4 gneE9 gneE11 gneE14"/>
    </vehicle>
    <vehicle id="770" depart="308.00">
        <route edges="gneE4"/>
    </vehicle>
    <vehicle id="772" depart="308.80">
        <route edges="-gneE9"/>
    </vehicle>
    <vehicle id="775" depart="310.00">
        <route edges="-gneE12 gneE10"/>
    </vehicle>
    <vehicle id="779" depart="311.60">
        <route edges="-gneE0 gneE1 gneE4 gneE9 gneE10 gneE13"/>
    </vehicle>
    <vehicle id="785" depart="314.00">
        <route edges="gneE4 gneE9"/>
    </vehicle>
    <vehicle id="789" depart="315.60">
        <route edges="-gneE5 -gneE0 gneE1 gneE4 gneE9 gneE11"/>
    </vehicle>
    <vehicle id="791" depart="316.40">
        <route edges="-gneE2 gneE0 gneE5"/>
    </vehicle>
    <vehicle id="800" depart="320.00">
        <route edges="-gneE5 -gneE0 gneE1 gneE4 gneE9 gneE11 gneE14"/>
    </vehicle>
    <vehicle id="801" depart="320.40">
        <route edges="gneE2"/>
    </vehicle>
    <vehicle id="802" depart="320.80">
        <route edges="-gneE11 -gneE9"/>
    </vehicle>
    <vehicle id="812" depart="324.80">
        <route edges="gneE4 gneE9 gneE10"/>
    </vehicle>
    <vehicle id="815" depart="326.00">
        <route edges="-gneE16 -gneE12 -gneE9 -gneE4 -gneE1 gneE2"/>
    </vehicle>
    <vehicle id="822" depart="328.80">
        <route edges="-gneE9 -gneE4 -gneE1 gneE2 gneE7"/>
    </vehicle>
    <vehicle id="823" depart="329.20">
        <route edges="-gneE3 gneE1 gneE4"/>
    </vehicle>
    <vehicle id="825" depart="330.00">
        <route edges="gneE11"/>
    </vehicle>
    <vehicle id="827" depart="330.80">
        <route edges="-gneE14 -gneE11 gneE12 gneE16"/>
    </vehicle>
    <vehicle id="828" depart="331.20">
        <route edges="gneE0"/>
    </vehicle>
    <vehicle id="829" depart="331.60">
        <route edges="-gneE6 -gneE3 gneE1 gneE4 gneE9 gneE11"/>
    </vehicle>
    <vehicle id="836" depart="334.40">
        <route edges="-gneE11"/>
    </vehicle>
    <vehicle id="840" depart="336.00">
        <route edges="-gneE5 -gneE0 gneE2 gneE7"/>
    </vehicle>
    <vehicle id="846" depart="338.40">
        <route edges="-gneE16 -gneE12 -gneE9 -gneE4 -gneE1 gneE3"/>
    </vehicle>
    <vehicle id="847" depart="338.80">
        <route edges="gneE1"/>
    </vehicle>
    <vehicle id="850" depart="340.00">
        <route edges="-gneE9"/>
    </vehicle>
    <vehicle id="852" depart="340.80">
        <route edges="-gneE11 -gneE9"/>
    </vehicle>
    <vehicle id="855" depart="342.00">
        <route edges="-gneE16 -gneE12 -gneE9 -gneE4 -gneE1 gneE3 gneE6"/>
    </vehicle>
    <vehicle id="856" depart="342.40">
        <route edges="-gneE3 gneE1 gneE4 gneE9"/>
    </vehicle>
    <vehicle id="863" depart="345.20">
        <route edges="-gneE1 gneE2"/>
    </vehicle>
    <vehicle id="866" depart="346.40">
        <route edges="-gneE12 -gneE9 -gneE4 -gneE1"/>
    </vehicle>
    <vehicle id="870" depart="348.00">
        <route edges="gneE0"/>
    </vehicle>
    <vehicle id="873" depart="349.20">
        <route edges="-gneE5 -gneE0 gneE1"/>
    </vehicle>
    <vehicle id="874" depart="349.60">
        <route edges="-gneE4 -gneE1 gneE2"/>
    </vehicle>
    <vehicle id="880" depart="352.00">
        <route edges="-gneE4 -gneE1 gneE2"/>
    </vehicle>
    <vehicle id="883" depart="353.20">
        <route edges="-gneE4 -gneE1 gneE3"/>
    </vehicle>
    <vehicle id="887" depart="354.80">
        <route edges="gneE4 gneE9 gneE10"/>
    </vehicle>
    <vehicle id="888" depart="355.20">
        <route edges="gneE0 gneE5"/>
    </vehicle>
    <vehicle id="893" depart="357.20">
        <route edges="-gneE12 -gneE9 -gneE4 -gneE1 gneE2"/>
    </vehicle>
    <vehicle id="894" depart="357.60">
        <route edges="-gneE6 -gneE3 gneE1 gneE4 gneE9"/>
    </vehicle>
    <vehicle id="897" depart="358.80">
        <route edges="gneE10 gneE13"/>
    </vehicle>
    <vehicle id="907" depart="362.80">
        <route edges="gneE3 gneE6"/>
    </vehicle>
    <vehicle id="910" depart="364.00">
        <route edges="-gneE4 -gneE1 gneE3 gneE6"/>
    </vehicle>
    <vehicle id="911" depart="364.40">
        <route edges="-gneE9 -gneE4 -gneE1 gneE3"/>
    </vehicle>
    <vehicle id="912" depart="364.80">
        <route edges="-gneE6 -gneE3 gneE1 gneE4 gneE9 gneE11"/>
    </vehicle>
    <vehicle id="919" depart="367.60">
        <route edges="-gneE5 -gneE0 gneE1 gneE4 gneE9 gneE11 gneE14"/>
    </vehicle>
    <vehicle id="928" depart="371.20">
        <route edges="-gneE3 gneE1 gneE4 gneE9 gneE11 gneE14"/>
    </vehicle>
    <vehicle id="938" depart="375.20">
        <route edges="-gneE0 gneE2"/>
    </vehicle>
    <vehicle id="945" depart="378.00">
        <route edges="-gneE16 -gneE12"/>
    </vehicle>
    <vehicle id="955" depart="382.00">
        <route edges="-gneE5 -gneE0"/>
    </vehicle>
    <vehicle id="957" depart="382.80">
        <route edges="-gneE5 -gneE0 gneE2 gneE7"/>
    </vehicle>
    <vehicle id="960" depart="384.00">
        <route edges="gneE12 gneE16"/>
    </vehicle>
    <vehicle id="964" depart="385.60">
        <route edges="gneE11"/>
    </vehicle>
    <vehicle id="965" depart="386.00">
        <route edges="-gneE9 -gneE4"/>
    </vehicle>
    <vehicle id="968" depart="387.20">
        <route edges="-gneE0 gneE1"/>
    </vehicle>
    <vehicle id="969" depart="387.60">
        <route edges="gneE1"/>
    </vehicle>
    <vehicle id="971" depart="388.40">
        <route edges="-gneE9"/>
    </vehicle>
    <vehicle id="975" depart="390.00">
        <route edges="-gneE9 -gneE4"/>
    </vehicle>
    <vehicle id="977" depart="390.80">
        <route edges="-gneE3 gneE1"/>
    </vehicle>
    <vehicle id="982" depart="392.80">
        <route edges="-gneE0 gneE1 gneE4 gneE9 gneE10 gneE13"/>
    </vehicle>
    <vehicle id="985" depart="394.00">
        <route edges="-gneE6 -gneE3 gneE1 gneE4 gneE9 gneE11 gneE14"/>
    </vehicle>
    <vehicle id="989" depart="395.60">
        <route edges="-gneE3 gneE1"/>
    </vehicle>
    <vehicle id="993" depart="397.20">
        <route edges="gneE1 gneE4"/>
    </vehicle>
    <vehicle id="999" depart="399.60">
        <route edges="-gneE10 gneE11"/>
    </vehicle>
    <vehicle id="1011" depart="404.40">
        <route edges="-gneE1 gneE3 gneE6"/>
    </vehicle>
    <vehicle id="1019" depart="407.60">
        <route edges="-gneE3 gneE1 gneE4 gneE9"/>
    </vehicle>
    <vehicle id="1023" depart="409.20">
        <route edges="gneE4 gneE9 gneE10 gneE13"/>
    </vehicle>
    <vehicle id="1025" depart="410.00">
        <route edges="-gneE11 -gneE9"/>
    </vehicle>
    <vehicle id="1029" depart="411.60">
        <route edges="-gneE6 -gneE3 gneE1 gneE4 gneE9 gneE10 gneE13"/>
    </vehicle>
    <vehicle id="1031" depart="412.40">
        <route edges="-gneE16 -gneE12 -gneE9"/>
    </vehicle>
    <vehicle id="1036" depart="414.40">
        <route edges="gneE2 gneE7"/>
    </vehicle>
    <vehicle id="1041" depart="416.40">
        <route edges="-gneE5 -gneE0 gneE1 gneE4 gneE9 gneE11"/>
    </vehicle>
    <vehicle id="1045" depart="418.00">
        <route edges="-gneE14 -gneE11"/>
    </vehicle>
    <vehicle id="1048" depart="419.20">
        <route edges="-gneE5 -gneE0 gneE1 gneE4 gneE9 gneE10 gneE13"/>
    </vehicle>
    <vehicle id="1055" depart="422.00">
        <route edges="gneE4 gneE9 gneE11"/>
    </vehicle>
    <vehicle id="1060" depart="424.00">
        <route edges="-gneE10"/>
    </vehicle>
    <vehicle id="1066" depart="426.40">
        <route edges="-gneE6 -gneE3 gneE1 gneE4"/>
    </vehicle>
    <vehicle id="1070" depart="428.00">
        <route edges="-gneE16 -gneE12 -gneE9 -gneE4 -gneE1 gneE2"/>
    </vehicle>
    <vehicle id="1081" depart="432.40">
        <route edges="-gneE1 gneE3 gneE6"/>
    </vehicle>
    <vehicle id="1083" depart="433.20">
        <route edges="-gneE6 -gneE3"/>
    </vehicle>
    <vehicle id="1088" depart="435.20">
        <route edges="-gneE6 -gneE3 gneE0 gneE5"/>
    </vehicle>
    <vehicle id="1094" depart="437.60">
        <route edges="-gneE4 -gneE1"/>
    </vehicle>
    <vehicle id="1095" depart="438.00">
        <route edges="-gneE10 gneE11 gneE14"/>
    </vehicle>
    <vehicle id="1099" depart="439.60">
        <route edges="-gneE12 -gneE9 -gneE4 -gneE1 gneE3"/>
    </vehicle>
    <vehicle id="1103" depart="441.20">
        <route edges="gneE0"/>
    </vehicle>
    <vehicle id="1110" depart="444.00">
        <route edges="gneE1 gneE4 gneE9 gneE11 gneE14"/>
    </vehicle>
    <vehicle id="1114" depart="445.60">
        <route edges="-gneE10 gneE11 gneE14"/>
    </vehicle>
    <vehicle id="1117" depart="446.80">
        <route edges="-gneE3 gneE1 gneE4 gneE9 gneE10 gneE13"/>
    </vehicle>
    <vehicle id="1136" depart="454.40">
        <route edges="gneE12 gneE16"/>
    </vehicle>
    <vehicle id="1141" depart="456.40">
        <route edges="-gneE7 -gneE2 gneE3 gneE6"/>
    </vehicle>
    <vehicle id="1148" depart="459.20">
        <route edges="-gneE5 -gneE0 gneE1 gneE4 gneE9 gneE10"/>
    </vehicle>
    <vehicle id="1150" depart="460.00">
        <route edges="-gneE0 gneE1 gneE4 gneE9 gneE11 gneE14"/>
    </vehicle>
    <vehicle id="1151" depart="460.40">
        <route edges="-gneE12 -gneE9 -gneE4 -gneE1 gneE3 gneE6"/>
    </vehicle>
    <vehicle id="1152" depart="460.80">
        <route edges="-gneE4"/>
    </vehicle>
    <vehicle id="1156" depart="462.40">
        <route edges="-gneE10 gneE11 gneE14"/>
    </vehicle>
    <vehicle id="1160" depart="464.00">
        <route edges="-gneE14 -gneE11"/>
    </vehicle>
    <vehicle id="1162" depart="464.80">
        <route edges="-gneE14 -gneE11 -gneE9 -gneE4 -gneE1 gneE3 gneE6"/>
    </vehicle>
    <vehicle id="1169" depart="467.60">