<?xml version="1.0" encoding="UTF-8"?>

<!-- generated on 2021-09-29 19:30:52 by Eclipse SUMO duarouter Version 1.9.2
<configuration xmlns:xsi="http://www.w3.org/2001/XMLSchema-instance" xsi:noNamespaceSchemaLocation="http://sumo.dlr.de/xsd/duarouterConfiguration.xsd">

    <input>
        <net-file value="/home/sonic/Desktop/nets/case03/intersection.net.xml"/>
        <route-files value="trips.trips.xml"/>
    </input>

    <output>
        <output-file value="intersection_random40.rou.xml"/>
        <alternatives-output value="intersection_random40.rou.alt.xml"/>
    </output>

    <time>
        <begin value="0"/>
        <end value="3600.0"/>
    </time>

    <report>
        <no-warnings value="true"/>
        <ignore-errors value="true"/>
        <no-step-log value="true"/>
    </report>

</configuration>
-->

<routes xmlns:xsi="http://www.w3.org/2001/XMLSchema-instance" xsi:noNamespaceSchemaLocation="http://sumo.dlr.de/xsd/routes_file.xsd">
    <vehicle id="0" depart="0.00">
        <route edges="-gneE16 -gneE12 gneE10"/>
    </vehicle>
    <vehicle id="2" depart="0.80">
        <route edges="-gneE3 gneE1 gneE4 gneE9 gneE11"/>
    </vehicle>
    <vehicle id="6" depart="2.40">
        <route edges="-gneE3 gneE1 gneE4"/>
    </vehicle>
    <vehicle id="11" depart="4.40">
        <route edges="gneE1 gneE4 gneE9 gneE11"/>
    </vehicle>
    <vehicle id="15" depart="6.00">
        <route edges="-gneE4 -gneE1"/>
    </vehicle>
    <vehicle id="19" depart="7.60">
        <route edges="gneE10"/>
    </vehicle>
    <vehicle id="20" depart="8.00">
        <route edges="-gneE9 -gneE4 -gneE1 gneE3"/>
    </vehicle>
    <vehicle id="26" depart="10.40">
        <route edges="-gneE9"/>
    </vehicle>
    <vehicle id="29" depart="11.60">
        <route edges="-gneE10 gneE12"/>
    </vehicle>
    <vehicle id="32" depart="12.80">
        <route edges="-gneE11 gneE12 gneE16"/>
    </vehicle>
    <vehicle id="35" depart="14.00">
        <route edges="-gneE12 -gneE9 -gneE4 -gneE1 gneE2 gneE7"/>
    </vehicle>
    <vehicle id="37" depart="14.80">
        <route edges="-gneE6 -gneE3 gneE1 gneE4"/>
    </vehicle>
    <vehicle id="41" depart="16.40">
        <route edges="-gneE16 -gneE12 -gneE9"/>
    </vehicle>
    <vehicle id="42" depart="16.80">
        <route edges="-gneE14 -gneE11 -gneE9 -gneE4 -gneE1"/>
    </vehicle>
    <vehicle id="46" depart="18.40">
        <route edges="gneE9 gneE11 gneE14"/>
    </vehicle>
    <vehicle id="50" depart="20.00">
        <route edges="-gneE11 -gneE9 -gneE4"/>
    </vehicle>
    <vehicle id="56" depart="22.40">
        <route edges="gneE10 gneE13"/>
    </vehicle>
    <vehicle id="59" depart="23.60">
        <route edges="gneE3"/>
    </vehicle>
    <vehicle id="63" depart="25.20">
        <route edges="-gneE3 gneE0 gneE5"/>
    </vehicle>
    <vehicle id="64" depart="25.60">
        <route edges="-gneE0 gneE2"/>
    </vehicle>
    <vehicle id="73" depart="29.20">
        <route edges="gneE4 gneE9"/>
    </vehicle>
    <vehicle id="75" depart="30.00">
        <route edges="-gneE6 -gneE3 gneE1 gneE4 gneE9"/>
    </vehicle>
    <vehicle id="81" depart="32.40">
        <route edges="gneE1 gneE4 gneE9 gneE10"/>
    </vehicle>
    <vehicle id="82" depart="32.80">
        <route edges="gneE2 gneE7"/>
    </vehicle>
    <vehicle id="84" depart="33.60">
        <route edges="-gneE16 -gneE12 gneE10 gneE13"/>
    </vehicle>
    <vehicle id="88" depart="35.20">
        <route edges="-gneE11 -gneE9 -gneE4 -gneE1 gneE3 gneE6"/>
    </vehicle>
    <vehicle id="93" depart="37.20">
        <route edges="-gneE11 -gneE9 -gneE4 -gneE1 gneE2 gneE7"/>
    </vehicle>
    <vehicle id="94" depart="37.60">
        <route edges="-gneE14 -gneE11 -gneE9 -gneE4 -gneE1 gneE2"/>
    </vehicle>
    <vehicle id="96" depart="38.40">
        <route edges="-gneE11"/>
    </vehicle>
    <vehicle id="101" depart="40.40">
        <route edges="-gneE0 gneE1 gneE4 gneE9 gneE11 gneE14"/>
    </vehicle>
    <vehicle id="105" depart="42.00">
        <route edges="-gneE11 -gneE9 -gneE4 -gneE1 gneE2 gneE7"/>
    </vehicle>
    <vehicle id="113" depart="45.20">
        <route edges="-gneE0 gneE1 gneE4 gneE9 gneE10 gneE13"/>
    </vehicle>
    <vehicle id="119" depart="47.60">
        <route edges="-gneE3 gneE1 gneE4"/>
    </vehicle>
    <vehicle id="127" depart="50.80">
        <route edges="-gneE5 -gneE0 gneE1"/>
    </vehicle>
    <vehicle id="134" depart="53.60">
        <route edges="-gneE10 gneE12 gneE16"/>
    </vehicle>
    <vehicle id="141" depart="56.40">
        <route edges="-gneE1"/>
    </vehicle>
    <vehicle id="144" depart="57.60">
        <route edges="-gneE14 -gneE11 -gneE9 -gneE4 -gneE1 gneE3"/>
    </vehicle>
    <vehicle id="147" depart="58.80">
        <route edges="-gneE2 gneE0"/>
    </vehicle>
    <vehicle id="148" depart="59.20">
        <route edges="-gneE9"/>
    </vehicle>
    <vehicle id="155" depart="62.00">
        <route edges="-gneE5 -gneE0 gneE2"/>
    </vehicle>
    <vehicle id="158" depart="63.20">
        <route edges="-gneE11 gneE12"/>
    </vehicle>
    <vehicle id="160" depart="64.00">
        <route edges="-gneE4 -gneE1 gneE3 gneE6"/>
    </vehicle>
    <vehicle id="171" depart="68.40">
        <route edges="-gneE14 -gneE11 -gneE9 -gneE4 -gneE1 gneE3"/>
    </vehicle>
    <vehicle id="174" depart="69.60">
        <route edges="-gneE14 -gneE11 gneE12"/>
    </vehicle>
    <vehicle id="179" depart="71.60">
        <route edges="-gneE5 -gneE0 gneE1 gneE4 gneE9 gneE10"/>
    </vehicle>
    <vehicle id="181" depart="72.40">
        <route edges="-gneE6 -gneE3 gneE1 gneE4 gneE9 gneE11"/>
    </vehicle>
    <vehicle id="186" depart="74.40">
        <route edges="-gneE6 -gneE3 gneE1 gneE4 gneE9 gneE11 gneE14"/>
    </vehicle>
    <vehicle id="189" depart="75.60">
        <route edges="-gneE14 -gneE11 -gneE9 -gneE4"/>
    </vehicle>
    <vehicle id="191" depart="76.40">
        <route edges="gneE1 gneE4 gneE9 gneE11"/>
    </vehicle>
    <vehicle id="194" depart="77.60">
        <route edges="-gneE5 -gneE0"/>
    </vehicle>
    <vehicle id="196" depart="78.40">
        <route edges="-gneE0 gneE1 gneE4 gneE9 gneE10 gneE13"/>
    </vehicle>
    <vehicle id="199" depart="79.60">
        <route edges="-gneE11 gneE12"/>
    </vehicle>
    <vehicle id="200" depart="80.00">
        <route edges="-gneE0 gneE1"/>
    </vehicle>
    <vehicle id="204" depart="81.60">
        <route edges="gneE0"/>
    </vehicle>
    <vehicle id="208" depart="83.20">
        <route edges="gneE1 gneE4 gneE9"/>
    </vehicle>
    <vehicle id="210" depart="84.00">
        <route edges="-gneE1 gneE2 gneE7"/>
    </vehicle>
    <vehicle id="212" depart="84.80">
        <route edges="-gneE9 -gneE4 -gneE1 gneE3 gneE6"/>
    </vehicle>
    <vehicle id="214" depart="85.60">
        <route edges="gneE2 gneE7"/>
    </vehicle>
    <vehicle id="217" depart="86.80">
        <route edges="-gneE9"/>
    </vehicle>
    <vehicle id="224" depart="89.60">
        <route edges="-gneE14 -gneE11 -gneE9 -gneE4"/>
    </vehicle>
    <vehicle id="230" depart="92.00">
        <route edges="-gneE13 -gneE10 gneE11"/>
    </vehicle>
    <vehicle id="236" depart="94.40">
        <route edges="-gneE5 -gneE0"/>
    </vehicle>
    <vehicle id="243" depart="97.20">
        <route edges="gneE2 gneE7"/>
    </vehicle>
    <vehicle id="250" depart="100.00">
        <route edges="-gneE14 -gneE11 gneE12 gneE16"/>
    </vehicle>
    <vehicle id="253" depart="101.20">
        <route edges="-gneE2 gneE0 gneE5"/>
    </vehicle>
    <vehicle id="257" depart="102.80">
        <route edges="-gneE5 -gneE0 gneE1 gneE4 gneE9"/>
    </vehicle>
    <vehicle id="259" depart="103.60">
        <route edges="-gneE3 gneE1"/>
    </vehicle>
    <vehicle id="260" depart="104.00">
        <route edges="-gneE3 gneE0 gneE5"/>
    </vehicle>
    <vehicle id="264" depart="105.60">
        <route edges="gneE4 gneE9 gneE11 gneE14"/>
    </vehicle>
    <vehicle id="267" depart="106.80">
        <route edges="-gneE16 -gneE12 -gneE9 -gneE4 -gneE1 gneE2 gneE7"/>
    </vehicle>
    <vehicle id="271" depart="108.40">
        <route edges="gneE2 gneE7"/>
    </vehicle>
    <vehicle id="275" depart="110.00">
        <route edges="-gneE1 gneE2 gneE7"/>
    </vehicle>
    <vehicle id="277" depart="110.80">
        <route edges="-gneE0 gneE1"/>
    </vehicle>
    <vehicle id="285" depart="114.00">
        <route edges="gneE12 gneE16"/>
    </vehicle>
    <vehicle id="288" depart="115.20">
        <route edges="-gneE5 -gneE0"/>
    </vehicle>
    <vehicle id="289" depart="115.60">
        <route edges="-gneE14 -gneE11 -gneE9 -gneE4 -gneE1 gneE3"/>
    </vehicle>
    <vehicle id="293" depart="117.20">
        <route edges="gneE11"/>
    </vehicle>
    <vehicle id="294" depart="117.60">
        <route edges="-gneE2"/>
    </vehicle>
    <vehicle id="298" depart="119.20">
        <route edges="-gneE4"/>
    </vehicle>
    <vehicle id="302" depart="120.80">
        <route edges="gneE9 gneE11 gneE14"/>
    </vehicle>
    <vehicle id="308" depart="123.20">
        <route edges="-gneE4 -gneE1 gneE3 gneE6"/>
    </vehicle>
    <vehicle id="310" depart="124.00">
        <route edges="gneE4 gneE9"/>
    </vehicle>
    <vehicle id="311" depart="124.40">
        <route edges="-gneE4"/>
    </vehicle>
    <vehicle id="313" depart="125.20">
        <route edges="-gneE3 gneE1 gneE4 gneE9 gneE11 gneE14"/>
    </vehicle>
    <vehicle id="314" depart="125.60">
        <route edges="-gneE1 gneE2"/>
    </vehicle>
    <vehicle id="315" depart="126.00">
        <route edges="-gneE13 -gneE10"/>
    </vehicle>
    <vehicle id="317" depart="126.80">
        <route edges="-gneE7 -gneE2 gneE0 gneE5"/>
    </vehicle>
    <vehicle id="320" depart="128.00">
        <route edges="gneE12"/>
    </vehicle>
    <vehicle id="321" depart="128.40">
        <route edges="-gneE7 -gneE2 gneE0 gneE5"/>
    </vehicle>
    <vehicle id="324" depart="129.60">
        <route edges="-gneE9 -gneE4 -gneE1 gneE2 gneE7"/>
    </vehicle>
    <vehicle id="326" depart="130.40">
        <route edges="gneE4 gneE9 gneE11"/>
    </vehicle>
    <vehicle id="343" depart="137.20">
        <route edges="gneE12"/>
    </vehicle>
    <vehicle id="347" depart="138.80">
        <route edges="-gneE13 -gneE10 gneE11 gneE14"/>
    </vehicle>
    <vehicle id="351" depart="140.40">
        <route edges="-gneE5 -gneE0 gneE1"/>
    </vehicle>
    <vehicle id="359" depart="143.60">
        <route edges="-gneE1"/>
    </vehicle>
    <vehicle id="360" depart="144.00">
        <route edges="-gneE12 -gneE9 -gneE4 -gneE1 gneE3 gneE6"/>
    </vehicle>
    <vehicle id="361" depart="144.40">
        <route edges="-gneE11"/>
    </vehicle>
    <vehicle id="362" depart="144.80">
        <route edges="-gneE1"/>
    </vehicle>
    <vehicle id="366" depart="146.40">
        <route edges="-gneE9 -gneE4 -gneE1 gneE2"/>
    </vehicle>
    <vehicle id="369" depart="147.60">
        <route edges="gneE4 gneE9"/>
    </vehicle>
    <vehicle id="378" depart="151.20">
        <route edges="-gneE9 -gneE4 -gneE1 gneE3 gneE6"/>
    </vehicle>
    <vehicle id="379" depart="151.60">
        <route edges="-gneE3 gneE1"/>
    </vehicle>
    <vehicle id="386" depart="154.40">
        <route edges="-gneE4 -gneE1 gneE3"/>
    </vehicle>
    <vehicle id="389" depart="155.60">
        <route edges="-gneE16 -gneE12 gneE10 gneE13"/>
    </vehicle>
    <vehicle id="397" depart="158.80">
        <route edges="-gneE13 -gneE10 gneE12"/>
    </vehicle>
    <vehicle id="399" depart="159.60">
        <route edges="gneE3"/>
    </vehicle>
    <vehicle id="409" depart="163.60">
        <route edges="gneE1"/>
    </vehicle>
    <vehicle id="410" depart="164.00">
        <route edges="-gneE1 gneE3 gneE6"/>
    </vehicle>
    <vehicle id="414" depart="165.60">
        <route edges="-gneE12"/>
    </vehicle>
    <vehicle id="423" depart="169.20">
        <route edges="gneE4 gneE9 gneE11 gneE14"/>
    </vehicle>
    <vehicle id="438" depart="175.20">
        <route edges="-gneE16 -gneE12 -gneE9 -gneE4 -gneE1"/>
    </vehicle>
    <vehicle id="439" depart="175.60">
        <route edges="-gneE4 -gneE1"/>
    </vehicle>
    <vehicle id="443" depart="177.20">
        <route edges="gneE4 gneE9 gneE11 gneE14"/>
    </vehicle>
    <vehicle id="444" depart="177.60">
        <route edges="-gneE3"/>
    </vehicle>
    <vehicle id="448" depart="179.20">
        <route edges="gneE9 gneE10"/>
    </vehicle>
    <vehicle id="449" depart="179.60">
        <route edges="-gneE5 -gneE0 gneE1 gneE4 gneE9 gneE11"/>
    </vehicle>
    <vehicle id="451" depart="180.40">
        <route edges="gneE1 gneE4"/>
    </vehicle>
    <vehicle id="452" depart="180.80">
        <route edges="-gneE5 -gneE0 gneE1 gneE4 gneE9 gneE10 gneE13"/>
    </vehicle>
    <vehicle id="453" depart="181.20">
        <route edges="-gneE4 -gneE1 gneE3 gneE6"/>
    </vehicle>
    <vehicle id="460" depart="184.00">
        <route edges="gneE11"/>
    </vehicle>
    <vehicle id="461" depart="184.40">
        <route edges="gneE12 gneE16"/>
    </vehicle>
    <vehicle id="480" depart="192.00">
        <route edges="-gneE1"/>
    </vehicle>
    <vehicle id="481" depart="192.40">
        <route edges="-gneE0 gneE1 gneE4 gneE9"/>
    </vehicle>
    <vehicle id="482" depart="192.80">
        <route edges="-gneE16 -gneE12 gneE10 gneE13"/>
    </vehicle>
    <vehicle id="483" depart="193.20">
        <route edges="gneE1 gneE4 gneE9 gneE11"/>
    </vehicle>
    <vehicle id="487" depart="194.80">
        <route edges="-gneE4 -gneE1 gneE2"/>
    </vehicle>
    <vehicle id="498" depart="199.20">
        <route edges="gneE2 gneE7"/>
    </vehicle>
    <vehicle id="502" depart="200.80">
        <route edges="-gneE5 -gneE0 gneE2"/>
    </vehicle>
    <vehicle id="504" depart="201.60">
        <route edges="gneE11"/>
    </vehicle>
    <vehicle id="521" depart="208.40">
        <route edges="-gneE9 -gneE4 -gneE1 gneE3 gneE6"/>
    </vehicle>
    <vehicle id="528" depart="211.20">
        <route edges="-gneE12"/>
    </vehicle>
    <vehicle id="541" depart="216.40">
        <route edges="-gneE12 gneE10"/>
    </vehicle>
    <vehicle id="548" depart="219.20">
        <route edges="-gneE16 -gneE12 -gneE9 -gneE4 -gneE1"/>
    </vehicle>
    <vehicle id="552" depart="220.80">
        <route edges="-gneE14 -gneE11 -gneE9 -gneE4 -gneE1 gneE2 gneE7"/>
    </vehicle>
    <vehicle id="555" depart="222.00">
        <route edges="gneE12 gneE16"/>
    </vehicle>
    <vehicle id="559" depart="223.60">
        <route edges="-gneE13 -gneE10"/>
    </vehicle>
    <vehicle id="561" depart="224.40">
        <route edges="-gneE0 gneE1 gneE4 gneE9 gneE11"/>
    </vehicle>
    <vehicle id="567" depart="226.80">
        <route edges="gneE2"/>
    </vehicle>
    <vehicle id="570" depart="228.00">
        <route edges="-gneE16 -gneE12 -gneE9 -gneE4"/>
    </vehicle>
    <vehicle id="571" depart="228.40">
        <route edges="-gneE13 -gneE10"/>
    </vehicle>
    <vehicle id="572" depart="228.80">
        <route edges="-gneE5 -gneE0 gneE1 gneE4"/>
    </vehicle>
    <vehicle id="575" depart="230.00">
        <route edges="gneE4 gneE9 gneE10"/>
    </vehicle>
    <vehicle id="577" depart="230.80">
        <route edges="-gneE5 -gneE0 gneE1 gneE4"/>
    </vehicle>
    <vehicle id="580" depart="232.00">
        <route edges="-gneE9 -gneE4 -gneE1 gneE3 gneE6"/>
    </vehicle>
    <vehicle id="582" depart="232.80">
        <route edges="-gneE5 -gneE0 gneE1 gneE4 gneE9"/>
    </vehicle>
    <vehicle id="583" depart="233.20">
        <route edges="-gneE7 -gneE2 gneE0 gneE5"/>
    </vehicle>
    <vehicle id="588" depart="235.20">
        <route edges="-gneE5 -gneE0 gneE1 gneE4"/>
    </vehicle>
    <vehicle id="589" depart="235.60">
        <route edges="gneE0 gneE5"/>
    </vehicle>
    <vehicle id="592" depart="236.80">
        <route edges="gneE0 gneE5"/>
    </vehicle>
    <vehicle id="593" depart="237.20">
        <route edges="-gneE9"/>
    </vehicle>
    <vehicle id="598" depart="239.20">
        <route edges="-gneE16 -gneE12 -gneE9 -gneE4 -gneE1 gneE2 gneE7"/>
    </vehicle>
    <vehicle id="601" depart="240.40">
        <route edges="-gneE0 gneE1 gneE4 gneE9 gneE11"/>
    </vehicle>
    <vehicle id="602" depart="240.80">
        <route edges="gneE4 gneE9 gneE10"/>
    </vehicle>
    <vehicle id="606" depart="242.40">
        <route edges="-gneE3 gneE1 gneE4 gneE9 gneE11"/>
    </vehicle>
    <vehicle id="611" depart="244.40">
        <route edges="-gneE4 -gneE1 gneE3 gneE6"/>
    </vehicle>
    <vehicle id="613" depart="245.20">
        <route edges="gneE9 gneE11"/>
    </vehicle>
    <vehicle id="619" depart="247.60">
        <route edges="gneE1 gneE4"/>
    </vehicle>
    <vehicle id="621" depart="248.40">
        <route edges="-gneE1 gneE3"/>
    </vehicle>
    <vehicle id="622" depart="248.80">
        <route edges="gneE10"/>
    </vehicle>
    <vehicle id="624" depart="249.60">
        <route edges="-gneE6 -gneE3 gneE1 gneE4 gneE9"/>
    </vehicle>
    <vehicle id="625" depart="250.00">
        <route edges="gneE1 gneE4 gneE9 gneE10 gneE13"/>
    </vehicle>
    <vehicle id="627" depart="250.80">
        <route edges="-gneE16 -gneE12 -gneE9 -gneE4 -gneE1 gneE3"/>
    </vehicle>
    <vehicle id="629" depart="251.60">
        <route edges="gneE9"/>
    </vehicle>
    <vehicle id="630" depart="252.00">
        <route edges="gneE3"/>
    </vehicle>
    <vehicle id="635" depart="254.00">
        <route edges="-gneE10 gneE11 gneE14"/>
    </vehicle>
    <vehicle id="640" depart="256.00">
        <route edges="-gneE2 gneE0 gneE5"/>
    </vehicle>
    <vehicle id="646" depart="258.40">
        <route edges="-gneE3 gneE1 gneE4"/>
    </vehicle>
    <vehicle id="647" depart="258.80">
        <route edges="-gneE14 -gneE11 -gneE9 -gneE4 -gneE1 gneE2 gneE7"/>
    </vehicle>
    <vehicle id="650" depart="260.00">
        <route edges="-gneE4 -gneE1 gneE2"/>
    </vehicle>
    <vehicle id="659" depart="263.60">
        <route edges="gneE10"/>
    </vehicle>
    <vehicle id="662" depart="264.80">
        <route edges="-gneE6 -gneE3 gneE1 gneE4 gneE9 gneE10 gneE13"/>
    </vehicle>
    <vehicle id="664" depart="265.60">
        <route edges="-gneE3 gneE1 gneE4 gneE9 gneE11"/>
    </vehicle>
    <vehicle id="665" depart="266.00">
        <route edges="gneE1 gneE4 gneE9 gneE10"/>
    </vehicle>
    <vehicle id="668" depart="267.20">
        <route edges="-gneE0 gneE1 gneE4"/>
    </vehicle>
    <vehicle id="685" depart="274.00">
        <route edges="-gneE5 -gneE0 gneE1 gneE4 gneE9"/>
    </vehicle>
    <vehicle id="688" depart="275.20">
        <route edges="-gneE11 gneE12 gneE16"/>
    </vehicle>
    <vehicle id="696" depart="278.40">
        <route edges="-gneE9"/>
    </vehicle>
    <vehicle id="701" depart="280.40">
        <route edges="-gneE3 gneE1 gneE4 gneE9 gneE11 gneE14"/>
    </vehicle>
    <vehicle id="706" depart="282.40">
        <route edges="-gneE5 -gneE0"/>
    </vehicle>
    <vehicle id="710" depart="284.00">
        <route edges="-gneE1 gneE3"/>
    </vehicle>
    <vehicle id="712" depart="284.80">
        <route edges="-gneE1"/>
    </vehicle>
    <vehicle id="713" depart="285.20">
        <route edges="-gneE6 -gneE3 gneE1"/>
    </vehicle>
    <vehicle id="716" depart="286.40">
        <route edges="-gneE2"/>
    </vehicle>
    <vehicle id="719" depart="287.60">
        <route edges="-gneE16 -gneE12 gneE10 gneE13"/>
    </vehicle>
    <vehicle id="725" depart="290.00">
        <route edges="-gneE13 -gneE10 gneE11 gneE14"/>
    </vehicle>
    <vehicle id="731" depart="292.40">
        <route edges="-gneE4 -gneE1 gneE3 gneE6"/>
    </vehicle>
    <vehicle id="732" depart="292.80">
        <route edges="-gneE16 -gneE12 -gneE9 -gneE4 -gneE1 gneE2 gneE7"/>
    </vehicle>
    <vehicle id="745" depart="298.00">
        <route edges="-gneE0 gneE1 gneE4 gneE9 gneE11"/>
    </vehicle>
    <vehicle id="747" depart="298.80">
        <route edges="-gneE10"/>
    </vehicle>
    <vehicle id="753" depart="301.20">
        <route edges="-gneE14 -gneE11 gneE12"/>
    </vehicle>
    <vehicle id="758" depart="303.20">
        <route edges="-gneE2 gneE3"/>
    </vehicle>
    <vehicle id="771" depart="308.40">
        <route edges="-gneE12 gneE10"/>
    </vehicle>
    <vehicle id="776" depart="310.40">
        <route edges="-gneE16 -gneE12 -gneE9 -gneE4 -gneE1 gneE2 gneE7"/>
    </vehicle>
    <vehicle id="780" depart="312.00">
        <route edges="-gneE13 -gneE10 gneE12"/>
    </vehicle>
    <vehicle id="785" depart="314.00">
        <route edges="-gneE4"/>
    </vehicle>
    <vehicle id="789" depart="315.60">
        <route edges="-gneE16 -gneE12 -gneE9 -gneE4 -gneE1"/>
    </vehicle>
    <vehicle id="802" depart="320.80">
        <route edges="-gneE1 gneE2 gneE7"/>
    </vehicle>
    <vehicle id="805" depart="322.00">
        <route edges="-gneE12 -gneE9 -gneE4 -gneE1 gneE2"/>
    </vehicle>
    <vehicle id="807" depart="322.80">
        <route edges="-gneE1 gneE3 gneE6"/>
    </vehicle>
    <vehicle id="814" depart="325.60">
        <route edges="-gneE14 -gneE11 gneE12 gneE16"/>
    </vehicle>
    <vehicle id="817" depart="326.80">
        <route edges="-gneE12 -gneE9 -gneE4 -gneE1 gneE3"/>
    </vehicle>
    <vehicle id="832" depart="332.80">
        <route edges="-gneE4 -gneE1 gneE3"/>
    </vehicle>
    <vehicle id="834" depart="333.60">
        <route edges="-gneE9 -gneE4 -gneE1 gneE3 gneE6"/>
    </vehicle>
    <vehicle id="835" depart="334.00">
        <route edges="-gneE0"/>
    </vehicle>
    <vehicle id="836" depart="334.40">
        <route edges="-gneE12 -gneE9 -gneE4"/>
    </vehicle>
    <vehicle id="841" depart="336.40">
        <route edges="-gneE9 -gneE4 -gneE1 gneE3 gneE6"/>
    </vehicle>
    <vehicle id="845" depart="338.00">
        <route edges="-gneE9 -gneE4 -gneE1 gneE2 gneE7"/>
    </vehicle>
    <vehicle id="849" depart="339.60">
        <route edges="-gneE9 -gneE4 -gneE1"/>
    </vehicle>
    <vehicle id="857" depart="342.80">
        <route edges="-gneE4 -gneE1 gneE2 gneE7"/>
    </vehicle>
    <vehicle id="860" depart="344.00">
        <route edges="-gneE6 -gneE3 gneE0"/>
    </vehicle>
    <vehicle id="863" depart="345.20">
        <route edges="gneE4 gneE9 gneE11"/>
    </vehicle>
    <vehicle id="869" depart="347.60">
        <route edges="-gneE16 -gneE12"/>
    </vehicle>
    <vehicle id="877" depart="350.80">
        <route edges="-gneE12"/>
    </vehicle>
    <vehicle id="878" depart="351.20">
        <route edges="-gneE1 gneE3"/>
    </vehicle>
    <vehicle id="883" depart="353.20">
        <route edges="gneE12"/>
    </vehicle>
    <vehicle id="885" depart="354.00">
        <route edges="-gneE13 -gneE10 gneE12"/>
    </vehicle>
    <vehicle id="887" depart="354.80">
        <route edges="-gneE0 gneE1 gneE4 gneE9 gneE11 gneE14"/>
    </vehicle>
    <vehicle id="889" depart="355.60">
        <route edges="gneE3 gneE6"/>
    </vehicle>
    <vehicle id="891" depart="356.40">
        <route edges="-gneE14 -gneE11 -gneE9 -gneE4 -gneE1 gneE2 gneE7"/>
    </vehicle>
    <vehicle id="895" depart="358.00">
        <route edges="-gneE2 gneE3"/>
    </vehicle>
    <vehicle id="897" depart="358.80">
        <route edges="-gneE13 -gneE10 gneE12 gneE16"/>
    </vehicle>
    <vehicle id="902" depart="360.80">
        <route edges="-gneE0"/>
    </vehicle>
    <vehicle id="905" depart="362.00">
        <route edges="-gneE6 -gneE3 gneE1 gneE4 gneE9 gneE11 gneE14"/>
    </vehicle>
    <vehicle id="908" depart="363.20">
        <route edges="-gneE16 -gneE12 gneE10 gneE13"/>
    </vehicle>
    <vehicle id="910" depart="364.00">
        <route edges="-gneE4 -gneE1"/>
    </vehicle>
    <vehicle id="914" depart="365.60">
        <route edges="-gneE16 -gneE12 -gneE9 -gneE4 -gneE1 gneE3 gneE6"/>
    </vehicle>
    <vehicle id="915" depart="366.00">
        <route edges="-gneE1 gneE2"/>
    </vehicle>
    <vehicle id="923" depart="369.20">
        <route edges="-gneE16 -gneE12 gneE10 gneE13"/>
    </vehicle>
    <vehicle id="925" depart="370.00">
        <route edges="gneE4 gneE9"/>
    </vehicle>
    <vehicle id="935" depart="374.00">
        <route edges="-gneE14 -gneE11 gneE12 gneE16"/>
    </vehicle>
    <vehicle id="937" depart="374.80">
        <route edges="-gneE4 -gneE1 gneE3 gneE6"/>
    </vehicle>
    <vehicle id="944" depart="377.60">
        <route edges="-gneE5 -gneE0 gneE1 gneE4 gneE9"/>
    </vehicle>
    <vehicle id="952" depart="380.80">
        <route edges="-gneE5 -gneE0 gneE2"/>
    </vehicle>
    <vehicle id="953" depart="381.20">
        <route edges="-gneE1 gneE3 gneE6"/>
    </vehicle>
    <vehicle id="957" depart="382.80">
        <route edges="-gneE16 -gneE12 -gneE9 -gneE4 -gneE1 gneE3"/>
    </vehicle>
    <vehicle id="959" depart="383.60">
        <route edges="gneE1 gneE4 gneE9"/>
    </vehicle>
    <vehicle id="969" depart="387.60">
        <route edges="gneE4"/>
    </vehicle>
    <vehicle id="979" depart="391.60">
        <route edges="-gneE10"/>
    </vehicle>
    <vehicle id="983" depart="393.20">
        <route edges="-gneE1 gneE3 gneE6"/>
    </vehicle>
    <vehicle id="986" depart="394.40">
        <route edges="gneE4 gneE9 gneE10 gneE13"/>
    </vehicle>
    <vehicle id="991" depart="396.40">
        <route edges="-gneE6 -gneE3 gneE1 gneE4 gneE9 gneE11"/>
    </vehicle>
    <vehicle id="994" depart="397.60">
        <route edges="-gneE0 gneE1 gneE4 gneE9 gneE11 gneE14"/>
    </vehicle>
    <vehicle id="997" depart="398.80">
        <route edges="gneE11 gneE14"/>
    </vehicle>
    <vehicle id="999" depart="399.60">
        <route edges="-gneE12 -gneE9 -gneE4 -gneE1 gneE2"/>
    </vehicle>
    <vehicle id="1006" depart="402.40">
        <route edges="gneE4 gneE9 gneE10 gneE13"/>
    </vehicle>
    <vehicle id="1007" depart="402.80">
        <route edges="-gneE11 -gneE9 -gneE4"/>
    </vehicle>
    <vehicle id="1010" depart="404.00">
        <route edges="-gneE6 -gneE3 gneE1 gneE4 gneE9 gneE10 gneE13"/>
    </vehicle>
    <vehicle id="1011" depart="404.40">
        <route edges="-gneE16 -gneE12 -gneE9"/>
    </vehicle>
    <vehicle id="1012" depart="404.80">
        <route edges="-gneE6 -gneE3 gneE0 gneE5"/>
    </vehicle>
    <vehicle id="1014" depart="405.60">
        <route edges="-gneE16 -gneE12 -gneE9 -gneE4 -gneE1 gneE2 gneE7"/>
    </vehicle>
    <vehicle id="1023" depart="409.20">
        <route edges="-gneE5 -gneE0 gneE2"/>
    </vehicle>
    <vehicle id="1030" depart="412.00">
        <route edges="gneE9 gneE10"/>
    </vehicle>
    <vehicle id="1036" depart="414.40">
        <route edges="-gneE14 -gneE11 -gneE9 -gneE4 -gneE1"/>
    </vehicle>
    <vehicle id="1039" depart="415.60">
        <route edges="-gneE4 -gneE1"/>
    </vehicle>
    <vehicle id="1040" depart="416.00">
        <route edges="-gneE16 -gneE12"/>
    </vehicle>
    <vehicle id="1042" depart="416.80">
        <route edges="-gneE16 -gneE12 -gneE9 -gneE4 -gneE1 gneE2 gneE7"/>
    </vehicle>
    <vehicle id="1043" depart="417.20">
        <route edges="-gneE5 -gneE0 gneE1"/>
    </vehicle>
    <vehicle id="1045" depart="418.00">
        <route edges="-gneE5 -gneE0 gneE1 gneE4"/>
    </vehicle>
    <vehicle id="1048" depart="419.20">
        <route edges="-gneE12 -gneE9 -gneE4"/>
    </vehicle>
    <vehicle id="1068" depart="427.20">
        <route edges="-gneE2 gneE0 gneE5"/>
    </vehicle>
    <vehicle id="1069" depart="427.60">
        <route edges="-gneE10 gneE11 gneE14"/>
    </vehicle>
    <vehicle id="1070" depart="428.00">
        <route edges="-gneE13 -gneE10 gneE12"/>
    </vehicle>
    <vehicle id="1071" depart="428.40">
        <route edges="gneE1 gneE4 gneE9"/>
    </vehicle>
    <vehicle id="1074" depart="429.60">
        <route edges="-gneE0 gneE1 gneE4 gneE9 gneE10 gneE13"/>
    </vehicle>
    <vehicle id="1081" depart="432.40">
        <route edges="-gneE5 -gneE0 gneE1 gneE4 gneE9 gneE10"/>
    </vehicle>
    <vehicle id="1085" depart="434.00">
        <route edges="gneE2 gneE7"/>
    </vehicle>
    <vehicle id="1086" depart="434.40">
        <route edges="-gneE4 -gneE1"/>
    </vehicle>
    <vehicle id="1089" depart="435.60">
        <route edges="-gneE14 -gneE11 -gneE9 -gneE4 -gneE1"/>
    </vehicle>
    <vehicle id="1090" depart="436.00">
        <route edges="-gneE16 -gneE12 -gneE9 -gneE4 -gneE1 gneE2 gneE7"/>
    </vehicle>
    <vehicle id="1093" depart="437.20">
        <route edges="-gneE16 -gneE12 -gneE9 -gneE4 -gneE1"/>
    </vehicle>
    <vehicle id="1094" depart="437.60">
        <route edges="-gneE10"/>
    </vehicle>
    <vehicle id="1098" depart="439.20">
        <route edges="-gneE16 -gneE12 -gneE9 -gneE4 -gneE1 gneE3 gneE6"/>
    </vehicle>
    <vehicle id="1099" depart="439.60">
        <route edges="-gneE1 gneE2"/>
    </vehicle>
    <vehicle id="1104" depart="441.60">
        <route edges="-gneE10 gneE12 gneE16"/>
    </vehicle>
    <vehicle id="1108" depart="443.20">
        <route edges="-gneE6 -gneE3"/>
    </vehicle>
    <vehicle id="1110" depart="444.00">
        <route edges="gneE4 gneE9 gneE11"/>
    </vehicle>
    <vehicle id="1112" depart="444.80">
        <route edges="-gneE5 -gneE0 gneE1 gneE4 gneE9 gneE11"/>
    </vehicle>
    <vehicle id="1120" depart="448.00">
        <route edges="gneE11 gneE14"/>
    </vehicle>
    <vehicle id="1126" depart="450.40">
        <route edges="-gneE9 -gneE4 -gneE1 gneE2 gneE7"/>
    </vehicle>
    <vehicle id="1127" depart="450.80">
        <route edges="-gneE16 -gneE12 -gneE9 -gneE4 -gneE1 gneE2"/>
    </vehicle>
    <vehicle id="1131" depart="452.40">
        <route edges="gneE4 gneE9 gneE10"/>
    </vehicle>
    <vehicle id="1133" depart="453.20">
        <route edges="-gneE6 -gneE3 gneE1 gneE4"/>
    </vehicle>
    <vehicle id="1141" depart="456.40">
        <route edges="-gneE14 -gneE11 -gneE9 -gneE4 -gneE1 gneE3"/>
    </vehicle>
    <vehicle id="1143" depart="457.20">
        <route edges="-gneE5 -gneE0 gneE2"/>
    </vehicle>
    <vehicle id="1148" depart="459.20">
        <route edges="-gneE4"/>
    </vehicle>