<?xml version="1.0" encoding="UTF-8"?>

<!-- generated on 2021-09-29 19:30:53 by Eclipse SUMO duarouter Version 1.9.2
<configuration xmlns:xsi="http://www.w3.org/2001/XMLSchema-instance" xsi:noNamespaceSchemaLocation="http://sumo.dlr.de/xsd/duarouterConfiguration.xsd">

    <input>
        <net-file value="/home/sonic/Desktop/nets/case03/intersection.net.xml"/>
        <route-files value="trips.trips.xml"/>
    </input>

    <output>
        <output-file value="intersection_random41.rou.xml"/>
        <alternatives-output value="intersection_random41.rou.alt.xml"/>
    </output>

    <time>
        <begin value="0"/>
        <end value="3600.0"/>
    </time>

    <report>
        <no-warnings value="true"/>
        <ignore-errors value="true"/>
        <no-step-log value="true"/>
    </report>

</configuration>
-->

<routes xmlns:xsi="http://www.w3.org/2001/XMLSchema-instance" xsi:noNamespaceSchemaLocation="http://sumo.dlr.de/xsd/routes_file.xsd">
    <vehicle id="5" depart="2.00">
        <route edges="-gneE9 -gneE4 -gneE1 gneE2 gneE7"/>
    </vehicle>
    <vehicle id="7" depart="2.80">
        <route edges="gneE4 gneE9 gneE10"/>
    </vehicle>
    <vehicle id="8" depart="3.20">
        <route edges="-gneE10 gneE12"/>
    </vehicle>
    <vehicle id="12" depart="4.80">
        <route edges="-gneE6 -gneE3 gneE0"/>
    </vehicle>
    <vehicle id="13" depart="5.20">
        <route edges="-gneE0 gneE1 gneE4 gneE9 gneE11"/>
    </vehicle>
    <vehicle id="14" depart="5.60">
        <route edges="-gneE0"/>
    </vehicle>
    <vehicle id="19" depart="7.60">
        <route edges="-gneE7 -gneE2"/>
    </vehicle>
    <vehicle id="20" depart="8.00">
        <route edges="-gneE5 -gneE0 gneE2 gneE7"/>
    </vehicle>
    <vehicle id="23" depart="9.20">
        <route edges="-gneE3 gneE0 gneE5"/>
    </vehicle>
    <vehicle id="25" depart="10.00">
        <route edges="gneE4 gneE9 gneE11 gneE14"/>
    </vehicle>
    <vehicle id="26" depart="10.40">
        <route edges="gneE4 gneE9 gneE10 gneE13"/>
    </vehicle>
    <vehicle id="28" depart="11.20">
        <route edges="-gneE7 -gneE2 gneE0 gneE5"/>
    </vehicle>
    <vehicle id="29" depart="11.60">
        <route edges="-gneE11"/>
    </vehicle>
    <vehicle id="31" depart="12.40">
        <route edges="-gneE4 -gneE1"/>
    </vehicle>
    <vehicle id="34" depart="13.60">
        <route edges="-gneE7 -gneE2 gneE3"/>
    </vehicle>
    <vehicle id="37" depart="14.80">
        <route edges="gneE1 gneE4 gneE9"/>
    </vehicle>
    <vehicle id="38" depart="15.20">
        <route edges="-gneE11 -gneE9 -gneE4 -gneE1 gneE2 gneE7"/>
    </vehicle>
    <vehicle id="48" depart="19.20">
        <route edges="gneE1 gneE4 gneE9 gneE10 gneE13"/>
    </vehicle>
    <vehicle id="52" depart="20.80">
        <route edges="-gneE14 -gneE11 -gneE9 -gneE4 -gneE1"/>
    </vehicle>
    <vehicle id="57" depart="22.80">
        <route edges="-gneE5 -gneE0 gneE1 gneE4 gneE9 gneE11"/>
    </vehicle>
    <vehicle id="59" depart="23.60">
        <route edges="-gneE3 gneE1"/>
    </vehicle>
    <vehicle id="61" depart="24.40">
        <route edges="-gneE5 -gneE0 gneE2 gneE7"/>
    </vehicle>
    <vehicle id="63" depart="25.20">
        <route edges="-gneE0 gneE1"/>
    </vehicle>
    <vehicle id="66" depart="26.40">
        <route edges="-gneE5 -gneE0 gneE1 gneE4"/>
    </vehicle>
    <vehicle id="73" depart="29.20">
        <route edges="-gneE7 -gneE2 gneE3"/>
    </vehicle>
    <vehicle id="78" depart="31.20">
        <route edges="-gneE6 -gneE3"/>
    </vehicle>
    <vehicle id="82" depart="32.80">
        <route edges="-gneE13 -gneE10 gneE11"/>
    </vehicle>
    <vehicle id="84" depart="33.60">
        <route edges="gneE9 gneE11 gneE14"/>
    </vehicle>
    <vehicle id="92" depart="36.80">
        <route edges="-gneE16 -gneE12"/>
    </vehicle>
    <vehicle id="94" depart="37.60">
        <route edges="-gneE3 gneE1 gneE4 gneE9 gneE11"/>
    </vehicle>
    <vehicle id="95" depart="38.00">
        <route edges="-gneE0 gneE1 gneE4 gneE9 gneE11"/>
    </vehicle>
    <vehicle id="99" depart="39.60">
        <route edges="-gneE7 -gneE2"/>
    </vehicle>
    <vehicle id="101" depart="40.40">
        <route edges="-gneE9 -gneE4 -gneE1 gneE2 gneE7"/>
    </vehicle>
    <vehicle id="103" depart="41.20">
        <route edges="-gneE16 -gneE12 gneE10"/>
    </vehicle>
    <vehicle id="110" depart="44.00">
        <route edges="-gneE13 -gneE10 gneE11 gneE14"/>
    </vehicle>
    <vehicle id="111" depart="44.40">
        <route edges="-gneE3 gneE1 gneE4 gneE9"/>
    </vehicle>
    <vehicle id="114" depart="45.60">
        <route edges="-gneE6 -gneE3 gneE1 gneE4 gneE9 gneE11 gneE14"/>
    </vehicle>
    <vehicle id="119" depart="47.60">
        <route edges="-gneE0 gneE2 gneE7"/>
    </vehicle>
    <vehicle id="120" depart="48.00">
        <route edges="-gneE5 -gneE0 gneE1 gneE4 gneE9 gneE11 gneE14"/>
    </vehicle>
    <vehicle id="121" depart="48.40">
        <route edges="-gneE2 gneE3 gneE6"/>
    </vehicle>
    <vehicle id="123" depart="49.20">
        <route edges="gneE12"/>
    </vehicle>
    <vehicle id="125" depart="50.00">
        <route edges="-gneE11"/>
    </vehicle>
    <vehicle id="126" depart="50.40">
        <route edges="-gneE0"/>
    </vehicle>
    <vehicle id="127" depart="50.80">
        <route edges="gneE12 gneE16"/>
    </vehicle>
    <vehicle id="134" depart="53.60">
        <route edges="-gneE11 -gneE9 -gneE4 -gneE1"/>
    </vehicle>
    <vehicle id="135" depart="54.00">
        <route edges="gneE9"/>
    </vehicle>
    <vehicle id="139" depart="55.60">
        <route edges="gneE4 gneE9"/>
    </vehicle>
    <vehicle id="144" depart="57.60">
        <route edges="-gneE6 -gneE3 gneE0 gneE5"/>
    </vehicle>
    <vehicle id="145" depart="58.00">
        <route edges="-gneE11 -gneE9 -gneE4"/>
    </vehicle>
    <vehicle id="150" depart="60.00">
        <route edges="-gneE2 gneE3 gneE6"/>
    </vehicle>
    <vehicle id="151" depart="60.40">
        <route edges="-gneE4"/>
    </vehicle>
    <vehicle id="156" depart="62.40">
        <route edges="-gneE12 -gneE9 -gneE4 -gneE1 gneE2"/>
    </vehicle>
    <vehicle id="157" depart="62.80">
        <route edges="-gneE6 -gneE3 gneE0 gneE5"/>
    </vehicle>
    <vehicle id="158" depart="63.20">
        <route edges="-gneE16 -gneE12 -gneE9"/>
    </vehicle>
    <vehicle id="164" depart="65.60">
        <route edges="-gneE11 -gneE9 -gneE4 -gneE1"/>
    </vehicle>
    <vehicle id="166" depart="66.40">
        <route edges="-gneE6 -gneE3 gneE1 gneE4 gneE9 gneE11"/>
    </vehicle>
    <vehicle id="176" depart="70.40">
        <route edges="gneE9 gneE10"/>
    </vehicle>
    <vehicle id="186" depart="74.40">
        <route edges="-gneE0 gneE2 gneE7"/>
    </vehicle>
    <vehicle id="187" depart="74.80">
        <route edges="gneE9 gneE10"/>
    </vehicle>
    <vehicle id="191" depart="76.40">
        <route edges="gneE1 gneE4 gneE9"/>
    </vehicle>
    <vehicle id="194" depart="77.60">
        <route edges="gneE2"/>
    </vehicle>
    <vehicle id="195" depart="78.00">
        <route edges="gneE4"/>
    </vehicle>
    <vehicle id="196" depart="78.40">
        <route edges="-gneE10 gneE12 gneE16"/>
    </vehicle>
    <vehicle id="200" depart="80.00">
        <route edges="-gneE14 -gneE11 -gneE9 -gneE4 -gneE1 gneE2"/>
    </vehicle>
    <vehicle id="208" depart="83.20">
        <route edges="-gneE3 gneE1 gneE4 gneE9 gneE10 gneE13"/>
    </vehicle>
    <vehicle id="210" depart="84.00">
        <route edges="gneE10 gneE13"/>
    </vehicle>
    <vehicle id="216" depart="86.40">
        <route edges="-gneE4"/>
    </vehicle>
    <vehicle id="218" depart="87.20">
        <route edges="-gneE11 -gneE9 -gneE4 -gneE1 gneE2 gneE7"/>
    </vehicle>
    <vehicle id="220" depart="88.00">
        <route edges="-gneE0 gneE1 gneE4 gneE9 gneE11 gneE14"/>
    </vehicle>
    <vehicle id="222" depart="88.80">
        <route edges="-gneE14 -gneE11 -gneE9"/>
    </vehicle>
    <vehicle id="226" depart="90.40">
        <route edges="-gneE5 -gneE0 gneE1 gneE4 gneE9"/>
    </vehicle>
    <vehicle id="234" depart="93.60">
        <route edges="-gneE14 -gneE11 -gneE9 -gneE4 -gneE1 gneE3 gneE6"/>
    </vehicle>
    <vehicle id="238" depart="95.20">
        <route edges="-gneE4 -gneE1"/>
    </vehicle>
    <vehicle id="239" depart="95.60">
        <route edges="-gneE6 -gneE3 gneE0 gneE5"/>
    </vehicle>
    <vehicle id="246" depart="98.40">
        <route edges="gneE4"/>
    </vehicle>
    <vehicle id="257" depart="102.80">
        <route edges="-gneE3 gneE1"/>
    </vehicle>
    <vehicle id="260" depart="104.00">
        <route edges="-gneE6 -gneE3 gneE1 gneE4 gneE9 gneE10 gneE13"/>
    </vehicle>
    <vehicle id="266" depart="106.40">
        <route edges="gneE12 gneE16"/>
    </vehicle>
    <vehicle id="267" depart="106.80">
        <route edges="-gneE7 -gneE2 gneE0"/>
    </vehicle>
    <vehicle id="269" depart="107.60">
        <route edges="-gneE11 gneE12 gneE16"/>
    </vehicle>
    <vehicle id="278" depart="111.20">
        <route edges="-gneE7 -gneE2 gneE0"/>
    </vehicle>
    <vehicle id="281" depart="112.40">
        <route edges="-gneE0 gneE1 gneE4 gneE9"/>
    </vehicle>
    <vehicle id="285" depart="114.00">
        <route edges="-gneE10 gneE11 gneE14"/>
    </vehicle>
    <vehicle id="292" depart="116.80">
        <route edges="gneE4 gneE9 gneE10"/>
    </vehicle>
    <vehicle id="293" depart="117.20">
        <route edges="-gneE0 gneE2 gneE7"/>
    </vehicle>
    <vehicle id="295" depart="118.00">
        <route edges="-gneE14 -gneE11 -gneE9 -gneE4"/>
    </vehicle>
    <vehicle id="300" depart="120.00">
        <route edges="-gneE11 -gneE9 -gneE4 -gneE1 gneE3 gneE6"/>
    </vehicle>
    <vehicle id="304" depart="121.60">
        <route edges="-gneE0 gneE1 gneE4 gneE9 gneE10"/>
    </vehicle>
    <vehicle id="307" depart="122.80">
        <route edges="-gneE16 -gneE12 -gneE9 -gneE4 -gneE1 gneE3 gneE6"/>
    </vehicle>
    <vehicle id="315" depart="126.00">
        <route edges="-gneE3 gneE1 gneE4 gneE9 gneE11 gneE14"/>
    </vehicle>
    <vehicle id="317" depart="126.80">
        <route edges="-gneE16 -gneE12 -gneE9 -gneE4 -gneE1 gneE2"/>
    </vehicle>
    <vehicle id="318" depart="127.20">
        <route edges="-gneE5 -gneE0 gneE1 gneE4"/>
    </vehicle>
    <vehicle id="325" depart="130.00">
        <route edges="gneE1 gneE4 gneE9 gneE11 gneE14"/>
    </vehicle>
    <vehicle id="329" depart="131.60">
        <route edges="-gneE0 gneE2 gneE7"/>
    </vehicle>
    <vehicle id="338" depart="135.20">
        <route edges="-gneE7 -gneE2 gneE3 gneE6"/>
    </vehicle>
    <vehicle id="352" depart="140.80">
        <route edges="gneE11"/>
    </vehicle>
    <vehicle id="363" depart="145.20">
        <route edges="-gneE11 -gneE9 -gneE4 -gneE1 gneE2 gneE7"/>
    </vehicle>
    <vehicle id="365" depart="146.00">
        <route edges="-gneE16 -gneE12 -gneE9 -gneE4 -gneE1 gneE2"/>
    </vehicle>
    <vehicle id="368" depart="147.20">
        <route edges="-gneE0 gneE1 gneE4 gneE9 gneE11"/>
    </vehicle>
    <vehicle id="371" depart="148.40">
        <route edges="-gneE10 gneE12 gneE16"/>
    </vehicle>
    <vehicle id="375" depart="150.00">
        <route edges="-gneE5 -gneE0 gneE1 gneE4 gneE9 gneE10 gneE13"/>
    </vehicle>
    <vehicle id="376" depart="150.40">
        <route edges="-gneE6 -gneE3 gneE1 gneE4"/>
    </vehicle>
    <vehicle id="384" depart="153.60">
        <route edges="-gneE14 -gneE11 gneE12 gneE16"/>
    </vehicle>
    <vehicle id="388" depart="155.20">
        <route edges="gneE9 gneE10"/>
    </vehicle>
    <vehicle id="391" depart="156.40">
        <route edges="gneE1 gneE4 gneE9"/>
    </vehicle>
    <vehicle id="392" depart="156.80">
        <route edges="-gneE1 gneE3 gneE6"/>
    </vehicle>
    <vehicle id="393" depart="157.20">
        <route edges="-gneE0 gneE1 gneE4 gneE9 gneE10"/>
    </vehicle>
    <vehicle id="399" depart="159.60">
        <route edges="gneE4 gneE9"/>
    </vehicle>
    <vehicle id="400" depart="160.00">
        <route edges="-gneE1"/>
    </vehicle>
    <vehicle id="402" depart="160.80">
        <route edges="-gneE11 -gneE9"/>
    </vehicle>
    <vehicle id="408" depart="163.20">
        <route edges="gneE0"/>
    </vehicle>
    <vehicle id="413" depart="165.20">
        <route edges="-gneE0 gneE1 gneE4 gneE9 gneE10 gneE13"/>
    </vehicle>
    <vehicle id="414" depart="165.60">
        <route edges="-gneE10 gneE12 gneE16"/>
    </vehicle>
    <vehicle id="418" depart="167.20">
        <route edges="gneE1 gneE4 gneE9"/>
    </vehicle>
    <vehicle id="419" depart="167.60">
        <route edges="-gneE9 -gneE4"/>
    </vehicle>
    <vehicle id="423" depart="169.20">
        <route edges="gneE9 gneE10"/>
    </vehicle>
    <vehicle id="427" depart="170.80">
        <route edges="gneE1 gneE4 gneE9 gneE10"/>
    </vehicle>
    <vehicle id="432" depart="172.80">
        <route edges="-gneE9 -gneE4 -gneE1 gneE2"/>
    </vehicle>
    <vehicle id="433" depart="173.20">
        <route edges="-gneE5 -gneE0"/>
    </vehicle>
    <vehicle id="440" depart="176.00">
        <route edges="-gneE10 gneE11 gneE14"/>
    </vehicle>
    <vehicle id="441" depart="176.40">
        <route edges="-gneE9"/>
    </vehicle>
    <vehicle id="443" depart="177.20">
        <route edges="-gneE12 gneE10 gneE13"/>
    </vehicle>
    <vehicle id="447" depart="178.80">
        <route edges="-gneE1 gneE3 gneE6"/>
    </vehicle>
    <vehicle id="457" depart="182.80">
        <route edges="gneE1 gneE4 gneE9 gneE11"/>
    </vehicle>
    <vehicle id="463" depart="185.20">
        <route edges="-gneE3 gneE0"/>
    </vehicle>
    <vehicle id="467" depart="186.80">
        <route edges="-gneE10 gneE12 gneE16"/>
    </vehicle>
    <vehicle id="469" depart="187.60">
        <route edges="gneE12 gneE16"/>
    </vehicle>
    <vehicle id="472" depart="188.80">
        <route edges="-gneE0 gneE2 gneE7"/>
    </vehicle>
    <vehicle id="475" depart="190.00">
        <route edges="-gneE0 gneE1 gneE4 gneE9 gneE10"/>
    </vehicle>
    <vehicle id="477" depart="190.80">
        <route edges="-gneE6 -gneE3"/>
    </vehicle>
    <vehicle id="480" depart="192.00">
        <route edges="-gneE3 gneE0 gneE5"/>
    </vehicle>
    <vehicle id="481" depart="192.40">
        <route edges="gneE10 gneE13"/>
    </vehicle>
    <vehicle id="486" depart="194.40">
        <route edges="-gneE6 -gneE3 gneE1 gneE4 gneE9 gneE11"/>
    </vehicle>
    <vehicle id="489" depart="195.60">
        <route edges="-gneE11 -gneE9 -gneE4 -gneE1 gneE2"/>
    </vehicle>
    <vehicle id="503" depart="201.20">
        <route edges="-gneE11 -gneE9 -gneE4 -gneE1 gneE2 gneE7"/>
    </vehicle>
    <vehicle id="507" depart="202.80">
        <route edges="-gneE12 gneE10"/>
    </vehicle>
    <vehicle id="510" depart="204.00">
        <route edges="-gneE13 -gneE10 gneE12 gneE16"/>
    </vehicle>
    <vehicle id="512" depart="204.80">
        <route edges="gneE4 gneE9 gneE11"/>
    </vehicle>
    <vehicle id="513" depart="205.20">
        <route edges="-gneE6 -gneE3 gneE1 gneE4 gneE9 gneE11"/>
    </vehicle>
    <vehicle id="516" depart="206.40">
        <route edges="-gneE11"/>
    </vehicle>
    <vehicle id="522" depart="208.80">
        <route edges="-gneE14 -gneE11 gneE12 gneE16"/>
    </vehicle>
    <vehicle id="523" depart="209.20">
        <route edges="-gneE12 -gneE9 -gneE4"/>
    </vehicle>
    <vehicle id="525" depart="210.00">
        <route edges="-gneE5 -gneE0 gneE1 gneE4 gneE9 gneE10 gneE13"/>
    </vehicle>
    <vehicle id="528" depart="211.20">
        <route edges="gneE1 gneE4"/>
    </vehicle>
    <vehicle id="529" depart="211.60">
        <route edges="-gneE4 -gneE1 gneE2"/>
    </vehicle>
    <vehicle id="535" depart="214.00">
        <route edges="-gneE6 -gneE3 gneE1 gneE4 gneE9 gneE11 gneE14"/>
    </vehicle>
    <vehicle id="536" depart="214.40">
        <route edges="-gneE10 gneE11"/>
    </vehicle>
    <vehicle id="544" depart="217.60">
        <route edges="-gneE14 -gneE11 gneE12 gneE16"/>
    </vehicle>
    <vehicle id="549" depart="219.60">
        <route edges="-gneE0 gneE1 gneE4 gneE9 gneE11"/>
    </vehicle>
    <vehicle id="551" depart="220.40">
        <route edges="-gneE14 -gneE11 -gneE9 -gneE4 -gneE1"/>
    </vehicle>
    <vehicle id="556" depart="222.40">
        <route edges="-gneE0 gneE1 gneE4 gneE9"/>
    </vehicle>
    <vehicle id="558" depart="223.20">
        <route edges="-gneE13 -gneE10 gneE12 gneE16"/>
    </vehicle>
    <vehicle id="570" depart="228.00">
        <route edges="-gneE3 gneE0 gneE5"/>
    </vehicle>
    <vehicle id="581" depart="232.40">
        <route edges="-gneE11 -gneE9 -gneE4 -gneE1"/>
    </vehicle>
    <vehicle id="582" depart="232.80">
        <route edges="-gneE0 gneE2 gneE7"/>
    </vehicle>
    <vehicle id="584" depart="233.60">
        <route edges="-gneE14 -gneE11 -gneE9 -gneE4"/>
    </vehicle>
    <vehicle id="591" depart="236.40">
        <route edges="-gneE12 gneE10"/>
    </vehicle>
    <vehicle id="593" depart="237.20">
        <route edges="gneE10"/>
    </vehicle>
    <vehicle id="594" depart="237.60">
        <route edges="-gneE13 -gneE10"/>
    </vehicle>
    <vehicle id="602" depart="240.80">
        <route edges="-gneE12 -gneE9 -gneE4 -gneE1 gneE3"/>
    </vehicle>
    <vehicle id="607" depart="242.80">
        <route edges="-gneE7 -gneE2"/>
    </vehicle>
    <vehicle id="608" depart="243.20">
        <route edges="-gneE4 -gneE1 gneE2"/>
    </vehicle>
    <vehicle id="618" depart="247.20">
        <route edges="-gneE0 gneE2"/>
    </vehicle>
    <vehicle id="619" depart="247.60">
        <route edges="-gneE13 -gneE10"/>
    </vehicle>
    <vehicle id="621" depart="248.40">
        <route edges="-gneE6 -gneE3 gneE0"/>
    </vehicle>
    <vehicle id="622" depart="248.80">
        <route edges="-gneE3 gneE1 gneE4 gneE9 gneE11"/>
    </vehicle>
    <vehicle id="630" depart="252.00">
        <route edges="-gneE4 -gneE1 gneE3 gneE6"/>
    </vehicle>
    <vehicle id="631" depart="252.40">
        <route edges="-gneE1 gneE2 gneE7"/>
    </vehicle>
    <vehicle id="632" depart="252.80">
        <route edges="-gneE10 gneE12"/>
    </vehicle>
    <vehicle id="635" depart="254.00">
        <route edges="-gneE16 -gneE12 -gneE9 -gneE4 -gneE1 gneE3"/>
    </vehicle>
    <vehicle id="636" depart="254.40">
        <route edges="-gneE13 -gneE10 gneE11"/>
    </vehicle>
    <vehicle id="637" depart="254.80">
        <route edges="gneE10"/>
    </vehicle>
    <vehicle id="640" depart="256.00">
        <route edges="-gneE0 gneE1"/>
    </vehicle>
    <vehicle id="641" depart="256.40">
        <route edges="-gneE5 -gneE0 gneE1 gneE4 gneE9 gneE11"/>
    </vehicle>
    <vehicle id="646" depart="258.40">
        <route edges="-gneE7 -gneE2 gneE0"/>
    </vehicle>
    <vehicle id="648" depart="259.20">
        <route edges="-gneE5 -gneE0 gneE1"/>
    </vehicle>
    <vehicle id="653" depart="261.20">
        <route edges="gneE1 gneE4 gneE9"/>
    </vehicle>
    <vehicle id="655" depart="262.00">
        <route edges="-gneE2 gneE3"/>
    </vehicle>
    <vehicle id="661" depart="264.40">
        <route edges="-gneE12"/>
    </vehicle>
    <vehicle id="666" depart="266.40">
        <route edges="-gneE14 -gneE11 -gneE9 -gneE4 -gneE1 gneE3"/>
    </vehicle>
    <vehicle id="671" depart="268.40">
        <route edges="-gneE13 -gneE10 gneE12 gneE16"/>
    </vehicle>
    <vehicle id="674" depart="269.60">
        <route edges="-gneE11 -gneE9 -gneE4"/>
    </vehicle>
    <vehicle id="682" depart="272.80">
        <route edges="-gneE13 -gneE10 gneE12"/>
    </vehicle>
    <vehicle id="689" depart="275.60">
        <route edges="-gneE7 -gneE2 gneE3 gneE6"/>
    </vehicle>
    <vehicle id="690" depart="276.00">
        <route edges="-gneE11"/>
    </vehicle>
    <vehicle id="693" depart="277.20">
        <route edges="-gneE10"/>
    </vehicle>
    <vehicle id="696" depart="278.40">
        <route edges="-gneE16 -gneE12 -gneE9 -gneE4 -gneE1 gneE3"/>
    </vehicle>
    <vehicle id="699" depart="279.60">
        <route edges="-gneE11 gneE12 gneE16"/>
    </vehicle>
    <vehicle id="701" depart="280.40">
        <route edges="-gneE5 -gneE0 gneE1 gneE4 gneE9 gneE10"/>
    </vehicle>
    <vehicle id="711" depart="284.40">
        <route edges="-gneE0 gneE1 gneE4 gneE9 gneE11"/>
    </vehicle>
    <vehicle id="716" depart="286.40">
        <route edges="-gneE11 -gneE9 -gneE4 -gneE1 gneE2"/>
    </vehicle>
    <vehicle id="718" depart="287.20">
        <route edges="-gneE2 gneE3"/>
    </vehicle>
    <vehicle id="723" depart="289.20">
        <route edges="-gneE11 gneE12 gneE16"/>
    </vehicle>
    <vehicle id="726" depart="290.40">
        <route edges="-gneE3 gneE1 gneE4 gneE9"/>
    </vehicle>
    <vehicle id="727" depart="290.80">
        <route edges="-gneE0 gneE1 gneE4 gneE9 gneE11"/>
    </vehicle>
    <vehicle id="731" depart="292.40">
        <route edges="-gneE0 gneE1 gneE4 gneE9"/>
    </vehicle>
    <vehicle id="745" depart="298.00">
        <route edges="-gneE11 -gneE9 -gneE4 -gneE1 gneE2"/>
    </vehicle>
    <vehicle id="749" depart="299.60">
        <route edges="-gneE12 -gneE9 -gneE4 -gneE1 gneE2"/>
    </vehicle>
    <vehicle id="755" depart="302.00">
        <route edges="-gneE6 -gneE3 gneE0"/>
    </vehicle>
    <vehicle id="761" depart="304.40">
        <route edges="gneE1 gneE4 gneE9 gneE11"/>
    </vehicle>
    <vehicle id="768" depart="307.20">
        <route edges="-gneE1 gneE3 gneE6"/>
    </vehicle>
    <vehicle id="771" depart="308.40">
        <route edges="-gneE5 -gneE0 gneE1 gneE4 gneE9 gneE10 gneE13"/>
    </vehicle>
    <vehicle id="772" depart="308.80">
        <route edges="gneE9 gneE11"/>
    </vehicle>
    <vehicle id="773" depart="309.20">
        <route edges="gneE11"/>
    </vehicle>
    <vehicle id="774" depart="309.60">
        <route edges="-gneE11"/>
    </vehicle>
    <vehicle id="778" depart="311.20">
        <route edges="gneE11 gneE14"/>
    </vehicle>
    <vehicle id="781" depart="312.40">
        <route edges="-gneE5 -gneE0 gneE2"/>
    </vehicle>
    <vehicle id="787" depart="314.80">
        <route edges="gneE4 gneE9 gneE10"/>
    </vehicle>
    <vehicle id="799" depart="319.60">
        <route edges="-gneE0 gneE1 gneE4 gneE9 gneE10 gneE13"/>
    </vehicle>
    <vehicle id="806" depart="322.40">
        <route edges="gneE4 gneE9 gneE11 gneE14"/>
    </vehicle>
    <vehicle id="807" depart="322.80">
        <route edges="-gneE5 -gneE0 gneE2"/>
    </vehicle>
    <vehicle id="815" depart="326.00">
        <route edges="-gneE0 gneE2"/>
    </vehicle>
    <vehicle id="818" depart="327.20">
        <route edges="-gneE16 -gneE12 -gneE9 -gneE4 -gneE1 gneE2"/>
    </vehicle>
    <vehicle id="824" depart="329.60">
        <route edges="gneE1 gneE4 gneE9 gneE10"/>
    </vehicle>
    <vehicle id="826" depart="330.40">
        <route edges="-gneE12 gneE10"/>
    </vehicle>
    <vehicle id="830" depart="332.00">
        <route edges="-gneE0 gneE1 gneE4 gneE9"/>
    </vehicle>
    <vehicle id="835" depart="334.00">
        <route edges="-gneE4 -gneE1"/>
    </vehicle>
    <vehicle id="838" depart="335.20">
        <route edges="-gneE2 gneE0"/>
    </vehicle>
    <vehicle id="842" depart="336.80">
        <route edges="-gneE12 -gneE9 -gneE4 -gneE1 gneE3"/>
    </vehicle>
    <vehicle id="843" depart="337.20">
        <route edges="-gneE13 -gneE10 gneE11 gneE14"/>
    </vehicle>
    <vehicle id="848" depart="339.20">
        <route edges="gneE1 gneE4 gneE9"/>
    </vehicle>
    <vehicle id="850" depart="340.00">
        <route edges="-gneE2 gneE3"/>
    </vehicle>
    <vehicle id="852" depart="340.80">
        <route edges="-gneE12 -gneE9 -gneE4"/>
    </vehicle>
    <vehicle id="853" depart="341.20">
        <route edges="-gneE6 -gneE3 gneE0"/>
    </vehicle>
    <vehicle id="859" depart="343.60">
        <route edges="gneE9 gneE10"/>
    </vehicle>
    <vehicle id="860" depart="344.00">
        <route edges="-gneE9 -gneE4 -gneE1 gneE3"/>
    </vehicle>
    <vehicle id="863" depart="345.20">
        <route edges="gneE1 gneE4 gneE9 gneE11 gneE14"/>
    </vehicle>
    <vehicle id="864" depart="345.60">
        <route edges="-gneE14 -gneE11 -gneE9 -gneE4 -gneE1 gneE3"/>
    </vehicle>
    <vehicle id="866" depart="346.40">
        <route edges="-gneE14 -gneE11 -gneE9 -gneE4 -gneE1 gneE2 gneE7"/>
    </vehicle>
    <vehicle id="869" depart="347.60">
        <route edges="-gneE5 -gneE0 gneE2 gneE7"/>
    </vehicle>
    <vehicle id="871" depart="348.40">
        <route edges="gneE1 gneE4"/>
    </vehicle>
    <vehicle id="879" depart="351.60">
        <route edges="gneE2 gneE7"/>
    </vehicle>
    <vehicle id="887" depart="354.80">
        <route edges="-gneE11 -gneE9 -gneE4 -gneE1"/>
    </vehicle>
    <vehicle id="889" depart="355.60">
        <route edges="-gneE10 gneE12 gneE16"/>
    </vehicle>
    <vehicle id="894" depart="357.60">
        <route edges="-gneE12 -gneE9 -gneE4 -gneE1 gneE2"/>
    </vehicle>
    <vehicle id="900" depart="360.00">
        <route edges="gneE4 gneE9 gneE11"/>
    </vehicle>
    <vehicle id="909" depart="363.60">
        <route edges="-gneE7 -gneE2 gneE3 gneE6"/>
    </vehicle>
    <vehicle id="913" depart="365.20">
        <route edges="-gneE0 gneE1 gneE4 gneE9 gneE10 gneE13"/>
    </vehicle>
    <vehicle id="914" depart="365.60">
        <route edges="-gneE6 -gneE3 gneE0 gneE5"/>
    </vehicle>
    <vehicle id="917" depart="366.80">
        <route edges="-gneE10 gneE12"/>
    </vehicle>
    <vehicle id="919" depart="367.60">
        <route edges="-gneE11 -gneE9 -gneE4"/>
    </vehicle>
    <vehicle id="920" depart="368.00">
        <route edges="-gneE7 -gneE2 gneE0"/>
    </vehicle>
    <vehicle id="924" depart="369.60">
        <route edges="gneE4 gneE9 gneE10"/>
    </vehicle>
    <vehicle id="925" depart="370.00">
        <route edges="gneE9"/>
    </vehicle>
    <vehicle id="927" depart="370.80">
        <route edges="-gneE12 -gneE9 -gneE4"/>
    </vehicle>
    <vehicle id="928" depart="371.20">
        <route edges="-gneE3"/>
    </vehicle>
    <vehicle id="929" depart="371.60">
        <route edges="gneE1 gneE4 gneE9 gneE10 gneE13"/>
    </vehicle>
    <vehicle id="930" depart="372.00">
        <route edges="-gneE5 -gneE0 gneE2"/>
    </vehicle>
    <vehicle id="934" depart="373.60">
        <route edges="-gneE12 -gneE9 -gneE4 -gneE1 gneE3"/>
    </vehicle>
    <vehicle id="936" depart="374.40">
        <route edges="-gneE14 -gneE11 -gneE9"/>
    </vehicle>
    <vehicle id="938" depart="375.20">
        <route edges="-gneE14 -gneE11 -gneE9 -gneE4 -gneE1 gneE3 gneE6"/>
    </vehicle>
    <vehicle id="953" depart="381.20">
        <route edges="-gneE12 -gneE9 -gneE4 -gneE1 gneE3"/>
    </vehicle>
    <vehicle id="964" depart="385.60">
        <route edges="-gneE11 -gneE9 -gneE4 -gneE1 gneE2"/>
    </vehicle>
    <vehicle id="969" depart="387.60">
        <route edges="-gneE11 -gneE9 -gneE4 -gneE1 gneE3"/>
    </vehicle>
    <vehicle id="970" depart="388.00">
        <route edges="gneE12"/>
    </vehicle>
    <vehicle id="971" depart="388.40">
        <route edges="-gneE16 -gneE12 -gneE9 -gneE4 -gneE1 gneE2 gneE7"/>
    </vehicle>
    <vehicle id="976" depart="390.40">
        <route edges="-gneE0 gneE1 gneE4 gneE9 gneE10"/>
    </vehicle>
    <vehicle id="986" depart="394.40">
        <route edges="-gneE1 gneE3"/>
    </vehicle>
    <vehicle id="988" depart="395.20">
        <route edges="-gneE0 gneE1 gneE4 gneE9 gneE10"/>
    </vehicle>
    <vehicle id="989" depart="395.60">
        <route edges="-gneE0 gneE2"/>
    </vehicle>
    <vehicle id="995" depart="398.00">
        <route edges="-gneE3"/>
    </vehicle>
    <vehicle id="996" depart="398.40">
        <route edges="-gneE11 -gneE9 -gneE4 -gneE1 gneE3"/>
    </vehicle>
    <vehicle id="998" depart="399.20">
        <route edges="gneE1 gneE4 gneE9 gneE11 gneE14"/>
    </vehicle>
    <vehicle id="1003" depart="401.20">
        <route edges="-gneE3 gneE0"/>
    </vehicle>
    <vehicle id="1004" depart="401.60">
        <route edges="-gneE2 gneE0 gneE5"/>
    </vehicle>
    <vehicle id="1011" depart="404.40">
        <route edges="-gneE5 -gneE0 gneE1 gneE4 gneE9 gneE11"/>
    </vehicle>
    <vehicle id="1012" depart="404.80">
        <route edges="-gneE7 -gneE2 gneE0 gneE5"/>
    </vehicle>
    <vehicle id="1015" depart="406.00">
        <route edges="-gneE6 -gneE3 gneE0 gneE5"/>
    </vehicle>
    <vehicle id="1016" depart="406.40">
        <route edges="gneE0 gneE5"/>
    </vehicle>
    <vehicle id="1017" depart="406.80">
        <route edges="-gneE11 gneE12 gneE16"/>
    </vehicle>
    <vehicle id="1022" depart="408.80">
        <route edges="gneE0 gneE5"/>
    </vehicle>
    <vehicle id="1024" depart="409.60">
        <route edges="-gneE6 -gneE3 gneE1 gneE4"/>
    </vehicle>
    <vehicle id="1025" depart="410.00">
        <route edges="gneE0"/>
    </vehicle>
    <vehicle id="1029" depart="411.60">
        <route edges="-gneE9 -gneE4 -gneE1 gneE3 gneE6"/>
    </vehicle>
    <vehicle id="1030" depart="412.00">
        <route edges="-gneE3 gneE0"/>
    </vehicle>
    <vehicle id="1034" depart="413.60">
        <route edges="-gneE4"/>
    </vehicle>
    <vehicle id="1042" depart="416.80">
        <route edges="-gneE12 -gneE9 -gneE4 -gneE1 gneE2 gneE7"/>
    </vehicle>
    <vehicle id="1043" depart="417.20">
        <route edges="-gneE10 gneE12 gneE16"/>
    </vehicle>
    <vehicle id="1049" depart="419.60">
        <route edges="-gneE2"/>
    </vehicle>
    <vehicle id="1054" depart="421.60">
        <route edges="-gneE2 gneE0 gneE5"/>
    </vehicle>
    <vehicle id="1055" depart="422.00">
        <route edges="-gneE5 -gneE0 gneE2"/>
    </vehicle>
    <vehicle id="1057" depart="422.80">
        <route edges="-gneE12 -gneE9 -gneE4 -gneE1 gneE2 gneE7"/>
    </vehicle>
    <vehicle id="1059" depart="423.60">
        <route edges="-gneE16 -gneE12 -gneE9 -gneE4 -gneE1 gneE3 gneE6"/>
    </vehicle>
    <vehicle id="1062" depart="424.80">