<?xml version="1.0" encoding="UTF-8"?>

<!-- generated on 2021-09-29 19:30:39 by Eclipse SUMO duarouter Version 1.9.2
<configuration xmlns:xsi="http://www.w3.org/2001/XMLSchema-instance" xsi:noNamespaceSchemaLocation="http://sumo.dlr.de/xsd/duarouterConfiguration.xsd">

    <input>
        <net-file value="/home/sonic/Desktop/nets/case03/intersection.net.xml"/>
        <route-files value="trips.trips.xml"/>
    </input>

    <output>
        <output-file value="intersection_random13.rou.xml"/>
        <alternatives-output value="intersection_random13.rou.alt.xml"/>
    </output>

    <time>
        <begin value="0"/>
        <end value="3600.0"/>
    </time>

    <report>
        <no-warnings value="true"/>
        <ignore-errors value="true"/>
        <no-step-log value="true"/>
    </report>

</configuration>
-->

<routes xmlns:xsi="http://www.w3.org/2001/XMLSchema-instance" xsi:noNamespaceSchemaLocation="http://sumo.dlr.de/xsd/routes_file.xsd">
    <vehicle id="0" depart="0.00">
        <route edges="-gneE11 -gneE9 -gneE4 -gneE1 gneE3"/>
    </vehicle>
    <vehicle id="10" depart="4.00">
        <route edges="-gneE3 gneE0"/>
    </vehicle>
    <vehicle id="22" depart="8.80">
        <route edges="gneE1 gneE4 gneE9 gneE10 gneE13"/>
    </vehicle>
    <vehicle id="26" depart="10.40">
        <route edges="-gneE9 -gneE4 -gneE1 gneE2"/>
    </vehicle>
    <vehicle id="32" depart="12.80">
        <route edges="-gneE11 -gneE9 -gneE4 -gneE1 gneE3 gneE6"/>
    </vehicle>
    <vehicle id="39" depart="15.60">
        <route edges="-gneE3 gneE1 gneE4 gneE9 gneE10 gneE13"/>
    </vehicle>
    <vehicle id="43" depart="17.20">
        <route edges="gneE4 gneE9 gneE10"/>
    </vehicle>
    <vehicle id="47" depart="18.80">
        <route edges="-gneE16 -gneE12 -gneE9"/>
    </vehicle>
    <vehicle id="53" depart="21.20">
        <route edges="-gneE12 gneE10"/>
    </vehicle>
    <vehicle id="54" depart="21.60">
        <route edges="-gneE1 gneE2 gneE7"/>
    </vehicle>
    <vehicle id="55" depart="22.00">
        <route edges="-gneE1"/>
    </vehicle>
    <vehicle id="57" depart="22.80">
        <route edges="gneE12"/>
    </vehicle>
    <vehicle id="63" depart="25.20">
        <route edges="-gneE0"/>
    </vehicle>
    <vehicle id="72" depart="28.80">
        <route edges="-gneE2 gneE3 gneE6"/>
    </vehicle>
    <vehicle id="74" depart="29.60">
        <route edges="-gneE6 -gneE3 gneE1 gneE4 gneE9 gneE11 gneE14"/>
    </vehicle>
    <vehicle id="82" depart="32.80">
        <route edges="-gneE14 -gneE11 -gneE9 -gneE4 -gneE1"/>
    </vehicle>
    <vehicle id="86" depart="34.40">
        <route edges="-gneE9 -gneE4 -gneE1 gneE3"/>
    </vehicle>
    <vehicle id="88" depart="35.20">
        <route edges="-gneE4 -gneE1"/>
    </vehicle>
    <vehicle id="89" depart="35.60">
        <route edges="-gneE2 gneE0 gneE5"/>
    </vehicle>
    <vehicle id="90" depart="36.00">
        <route edges="-gneE0 gneE2"/>
    </vehicle>
    <vehicle id="91" depart="36.40">
        <route edges="-gneE1"/>
    </vehicle>
    <vehicle id="100" depart="40.00">
        <route edges="-gneE13 -gneE10 gneE12 gneE16"/>
    </vehicle>
    <vehicle id="103" depart="41.20">
        <route edges="-gneE5 -gneE0 gneE1 gneE4 gneE9"/>
    </vehicle>
    <vehicle id="105" depart="42.00">
        <route edges="gneE2"/>
    </vehicle>
    <vehicle id="106" depart="42.40">
        <route edges="-gneE5 -gneE0 gneE2"/>
    </vehicle>
    <vehicle id="110" depart="44.00">
        <route edges="gneE1 gneE4 gneE9 gneE10 gneE13"/>
    </vehicle>
    <vehicle id="113" depart="45.20">
        <route edges="-gneE16 -gneE12 -gneE9"/>
    </vehicle>
    <vehicle id="115" depart="46.00">
        <route edges="-gneE9 -gneE4 -gneE1 gneE2"/>
    </vehicle>
    <vehicle id="119" depart="47.60">
        <route edges="-gneE2 gneE0 gneE5"/>
    </vehicle>
    <vehicle id="120" depart="48.00">
        <route edges="-gneE4 -gneE1 gneE2 gneE7"/>
    </vehicle>
    <vehicle id="121" depart="48.40">
        <route edges="-gneE11 -gneE9 -gneE4 -gneE1 gneE3"/>
    </vehicle>
    <vehicle id="122" depart="48.80">
        <route edges="-gneE13 -gneE10 gneE11"/>
    </vehicle>
    <vehicle id="123" depart="49.20">
        <route edges="-gneE3 gneE1 gneE4 gneE9 gneE10"/>
    </vehicle>
    <vehicle id="124" depart="49.60">
        <route edges="-gneE4"/>
    </vehicle>
    <vehicle id="125" depart="50.00">
        <route edges="-gneE11 -gneE9 -gneE4 -gneE1"/>
    </vehicle>
    <vehicle id="126" depart="50.40">
        <route edges="-gneE5 -gneE0 gneE1 gneE4"/>
    </vehicle>
    <vehicle id="131" depart="52.40">
        <route edges="gneE4 gneE9 gneE10 gneE13"/>
    </vehicle>
    <vehicle id="132" depart="52.80">
        <route edges="-gneE0 gneE2"/>
    </vehicle>
    <vehicle id="134" depart="53.60">
        <route edges="-gneE16 -gneE12 -gneE9"/>
    </vehicle>
    <vehicle id="137" depart="54.80">
        <route edges="-gneE2 gneE3 gneE6"/>
    </vehicle>
    <vehicle id="139" depart="55.60">
        <route edges="-gneE11 -gneE9 -gneE4 -gneE1 gneE3 gneE6"/>
    </vehicle>
    <vehicle id="142" depart="56.80">
        <route edges="gneE3 gneE6"/>
    </vehicle>
    <vehicle id="148" depart="59.20">
        <route edges="-gneE5 -gneE0 gneE1 gneE4 gneE9 gneE11 gneE14"/>
    </vehicle>
    <vehicle id="150" depart="60.00">
        <route edges="-gneE13 -gneE10 gneE12"/>
    </vehicle>
    <vehicle id="154" depart="61.60">
        <route edges="-gneE13 -gneE10 gneE11 gneE14"/>
    </vehicle>
    <vehicle id="157" depart="62.80">
        <route edges="-gneE0 gneE1 gneE4 gneE9 gneE11 gneE14"/>
    </vehicle>
    <vehicle id="158" depart="63.20">
        <route edges="gneE9 gneE10"/>
    </vehicle>
    <vehicle id="162" depart="64.80">
        <route edges="-gneE12 gneE10 gneE13"/>
    </vehicle>
    <vehicle id="167" depart="66.80">
        <route edges="gneE1 gneE4 gneE9 gneE11"/>
    </vehicle>
    <vehicle id="170" depart="68.00">
        <route edges="-gneE3 gneE1 gneE4"/>
    </vehicle>
    <vehicle id="174" depart="69.60">
        <route edges="gneE12"/>
    </vehicle>
    <vehicle id="179" depart="71.60">
        <route edges="-gneE12 -gneE9"/>
    </vehicle>
    <vehicle id="181" depart="72.40">
        <route edges="gneE3 gneE6"/>
    </vehicle>
    <vehicle id="199" depart="79.60">
        <route edges="gneE9"/>
    </vehicle>
    <vehicle id="200" depart="80.00">
        <route edges="-gneE13 -gneE10 gneE12"/>
    </vehicle>
    <vehicle id="201" depart="80.40">
        <route edges="gneE3 gneE6"/>
    </vehicle>
    <vehicle id="203" depart="81.20">
        <route edges="-gneE16 -gneE12"/>
    </vehicle>
    <vehicle id="214" depart="85.60">
        <route edges="-gneE13 -gneE10 gneE12 gneE16"/>
    </vehicle>
    <vehicle id="218" depart="87.20">
        <route edges="-gneE12 -gneE9 -gneE4 -gneE1 gneE2"/>
    </vehicle>
    <vehicle id="223" depart="89.20">
        <route edges="-gneE5 -gneE0 gneE1 gneE4 gneE9 gneE11"/>
    </vehicle>
    <vehicle id="227" depart="90.80">
        <route edges="gneE10"/>
    </vehicle>
    <vehicle id="228" depart="91.20">
        <route edges="-gneE11 -gneE9"/>
    </vehicle>
    <vehicle id="231" depart="92.40">
        <route edges="-gneE14 -gneE11"/>
    </vehicle>
    <vehicle id="241" depart="96.40">
        <route edges="-gneE0 gneE2"/>
    </vehicle>
    <vehicle id="246" depart="98.40">
        <route edges="-gneE9 -gneE4 -gneE1 gneE2 gneE7"/>
    </vehicle>
    <vehicle id="261" depart="104.40">
        <route edges="-gneE4"/>
    </vehicle>
    <vehicle id="264" depart="105.60">
        <route edges="-gneE1 gneE3 gneE6"/>
    </vehicle>
    <vehicle id="266" depart="106.40">
        <route edges="-gneE0 gneE1 gneE4 gneE9 gneE11 gneE14"/>
    </vehicle>
    <vehicle id="268" depart="107.20">
        <route edges="-gneE3 gneE1 gneE4 gneE9 gneE10"/>
    </vehicle>
    <vehicle id="270" depart="108.00">
        <route edges="-gneE1 gneE3 gneE6"/>
    </vehicle>
    <vehicle id="274" depart="109.60">
        <route edges="gneE1 gneE4 gneE9 gneE11 gneE14"/>
    </vehicle>
    <vehicle id="275" depart="110.00">
        <route edges="-gneE14 -gneE11 -gneE9 -gneE4 -gneE1 gneE3"/>
    </vehicle>
    <vehicle id="278" depart="111.20">
        <route edges="-gneE0 gneE1 gneE4 gneE9 gneE10"/>
    </vehicle>
    <vehicle id="284" depart="113.60">
        <route edges="-gneE6 -gneE3"/>
    </vehicle>
    <vehicle id="288" depart="115.20">
        <route edges="gneE1 gneE4 gneE9 gneE11"/>
    </vehicle>
    <vehicle id="292" depart="116.80">
        <route edges="-gneE12"/>
    </vehicle>
    <vehicle id="296" depart="118.40">
        <route edges="-gneE14 -gneE11 -gneE9 -gneE4 -gneE1"/>
    </vehicle>
    <vehicle id="300" depart="120.00">
        <route edges="-gneE16 -gneE12 -gneE9 -gneE4 -gneE1 gneE2"/>
    </vehicle>
    <vehicle id="301" depart="120.40">
        <route edges="-gneE9"/>
    </vehicle>
    <vehicle id="303" depart="121.20">
        <route edges="-gneE0 gneE1 gneE4 gneE9 gneE11 gneE14"/>
    </vehicle>
    <vehicle id="304" depart="121.60">
        <route edges="gneE2 gneE7"/>
    </vehicle>
    <vehicle id="306" depart="122.40">
        <route edges="-gneE10 gneE12 gneE16"/>
    </vehicle>
    <vehicle id="308" depart="123.20">
        <route edges="-gneE4 -gneE1 gneE3"/>
    </vehicle>
    <vehicle id="309" depart="123.60">
        <route edges="-gneE4"/>
    </vehicle>
    <vehicle id="312" depart="124.80">
        <route edges="gneE12"/>
    </vehicle>
    <vehicle id="313" depart="125.20">
        <route edges="-gneE16 -gneE12 gneE10"/>
    </vehicle>
    <vehicle id="316" depart="126.40">
        <route edges="-gneE16 -gneE12 -gneE9 -gneE4"/>
    </vehicle>
    <vehicle id="318" depart="127.20">
        <route edges="-gneE3 gneE1 gneE4"/>
    </vehicle>
    <vehicle id="319" depart="127.60">
        <route edges="-gneE3 gneE1 gneE4 gneE9"/>
    </vehicle>
    <vehicle id="326" depart="130.40">
        <route edges="-gneE14 -gneE11 -gneE9 -gneE4 -gneE1 gneE2"/>
    </vehicle>
    <vehicle id="343" depart="137.20">
        <route edges="-gneE16 -gneE12 -gneE9 -gneE4 -gneE1 gneE3"/>
    </vehicle>
    <vehicle id="350" depart="140.00">
        <route edges="-gneE3 gneE1 gneE4 gneE9 gneE10 gneE13"/>
    </vehicle>
    <vehicle id="351" depart="140.40">
        <route edges="-gneE4"/>
    </vehicle>
    <vehicle id="357" depart="142.80">
        <route edges="gneE4 gneE9"/>
    </vehicle>
    <vehicle id="371" depart="148.40">
        <route edges="-gneE2 gneE0"/>
    </vehicle>
    <vehicle id="372" depart="148.80">
        <route edges="-gneE0 gneE1 gneE4 gneE9"/>
    </vehicle>
    <vehicle id="377" depart="150.80">
        <route edges="gneE12"/>
    </vehicle>
    <vehicle id="382" depart="152.80">
        <route edges="-gneE0 gneE1 gneE4 gneE9 gneE11"/>
    </vehicle>
    <vehicle id="383" depart="153.20">
        <route edges="-gneE12 -gneE9 -gneE4 -gneE1 gneE2 gneE7"/>
    </vehicle>
    <vehicle id="385" depart="154.00">
        <route edges="-gneE6 -gneE3 gneE0"/>
    </vehicle>
    <vehicle id="386" depart="154.40">
        <route edges="-gneE3 gneE0"/>
    </vehicle>
    <vehicle id="388" depart="155.20">
        <route edges="-gneE9 -gneE4 -gneE1 gneE3"/>
    </vehicle>
    <vehicle id="389" depart="155.60">
        <route edges="-gneE4 -gneE1"/>
    </vehicle>
    <vehicle id="390" depart="156.00">
        <route edges="-gneE0"/>
    </vehicle>
    <vehicle id="393" depart="157.20">
        <route edges="gneE4 gneE9"/>
    </vehicle>
    <vehicle id="395" depart="158.00">
        <route edges="-gneE12 -gneE9 -gneE4"/>
    </vehicle>
    <vehicle id="397" depart="158.80">
        <route edges="-gneE13 -gneE10 gneE12"/>
    </vehicle>
    <vehicle id="398" depart="159.20">
        <route edges="-gneE16 -gneE12 -gneE9 -gneE4 -gneE1 gneE3 gneE6"/>
    </vehicle>
    <vehicle id="402" depart="160.80">
        <route edges="-gneE4 -gneE1 gneE3 gneE6"/>
    </vehicle>
    <vehicle id="403" depart="161.20">
        <route edges="-gneE14 -gneE11 -gneE9 -gneE4 -gneE1 gneE2"/>
    </vehicle>
    <vehicle id="409" depart="163.60">
        <route edges="-gneE6 -gneE3 gneE0"/>
    </vehicle>
    <vehicle id="423" depart="169.20">
        <route edges="-gneE3 gneE0"/>
    </vehicle>
    <vehicle id="427" depart="170.80">
        <route edges="-gneE0 gneE2 gneE7"/>
    </vehicle>
    <vehicle id="430" depart="172.00">
        <route edges="gneE4 gneE9 gneE10"/>
    </vehicle>
    <vehicle id="432" depart="172.80">
        <route edges="-gneE9 -gneE4 -gneE1 gneE2"/>
    </vehicle>
    <vehicle id="436" depart="174.40">
        <route edges="-gneE10 gneE11 gneE14"/>
    </vehicle>
    <vehicle id="439" depart="175.60">
        <route edges="-gneE6 -gneE3 gneE1 gneE4 gneE9 gneE11 gneE14"/>
    </vehicle>
    <vehicle id="442" depart="176.80">
        <route edges="gneE10 gneE13"/>
    </vehicle>
    <vehicle id="443" depart="177.20">
        <route edges="-gneE12 -gneE9 -gneE4 -gneE1 gneE3"/>
    </vehicle>
    <vehicle id="445" depart="178.00">
        <route edges="gneE9 gneE10 gneE13"/>
    </vehicle>
    <vehicle id="449" depart="179.60">
        <route edges="gneE4 gneE9 gneE11 gneE14"/>
    </vehicle>
    <vehicle id="453" depart="181.20">
        <route edges="-gneE10 gneE11"/>
    </vehicle>
    <vehicle id="459" depart="183.60">
        <route edges="-gneE12 -gneE9 -gneE4"/>
    </vehicle>
    <vehicle id="460" depart="184.00">
        <route edges="-gneE0 gneE2"/>
    </vehicle>
    <vehicle id="464" depart="185.60">
        <route edges="-gneE2 gneE0"/>
    </vehicle>
    <vehicle id="467" depart="186.80">
        <route edges="-gneE10 gneE11 gneE14"/>
    </vehicle>
    <vehicle id="468" depart="187.20">
        <route edges="-gneE16 -gneE12 gneE10"/>
    </vehicle>
    <vehicle id="471" depart="188.40">
        <route edges="gneE1 gneE4 gneE9 gneE10"/>
    </vehicle>
    <vehicle id="474" depart="189.60">
        <route edges="-gneE6 -gneE3 gneE1 gneE4 gneE9 gneE11"/>
    </vehicle>
    <vehicle id="477" depart="190.80">
        <route edges="gneE4 gneE9 gneE10"/>
    </vehicle>
    <vehicle id="481" depart="192.40">
        <route edges="-gneE11 -gneE9 -gneE4 -gneE1 gneE3 gneE6"/>
    </vehicle>
    <vehicle id="484" depart="193.60">
        <route edges="-gneE5 -gneE0 gneE1 gneE4 gneE9 gneE10 gneE13"/>
    </vehicle>
    <vehicle id="485" depart="194.00">
        <route edges="-gneE14 -gneE11 -gneE9"/>
    </vehicle>
    <vehicle id="486" depart="194.40">
        <route edges="gneE12 gneE16"/>
    </vehicle>
    <vehicle id="500" depart="200.00">
        <route edges="-gneE10 gneE12 gneE16"/>
    </vehicle>
    <vehicle id="502" depart="200.80">
        <route edges="-gneE10 gneE11 gneE14"/>
    </vehicle>
    <vehicle id="507" depart="202.80">
        <route edges="-gneE7 -gneE2 gneE3"/>
    </vehicle>
    <vehicle id="514" depart="205.60">
        <route edges="-gneE3"/>
    </vehicle>
    <vehicle id="521" depart="208.40">
        <route edges="-gneE1 gneE3 gneE6"/>
    </vehicle>
    <vehicle id="524" depart="209.60">
        <route edges="-gneE1 gneE2 gneE7"/>
    </vehicle>
    <vehicle id="527" depart="210.80">
        <route edges="-gneE7 -gneE2 gneE0"/>
    </vehicle>
    <vehicle id="536" depart="214.40">
        <route edges="-gneE7 -gneE2 gneE0 gneE5"/>
    </vehicle>
    <vehicle id="537" depart="214.80">
        <route edges="-gneE7 -gneE2 gneE3 gneE6"/>
    </vehicle>
    <vehicle id="539" depart="215.60">
        <route edges="-gneE6 -gneE3"/>
    </vehicle>
    <vehicle id="547" depart="218.80">
        <route edges="-gneE3 gneE0 gneE5"/>
    </vehicle>
    <vehicle id="550" depart="220.00">
        <route edges="-gneE11 -gneE9 -gneE4 -gneE1 gneE2 gneE7"/>
    </vehicle>
    <vehicle id="553" depart="221.20">
        <route edges="-gneE3 gneE1 gneE4 gneE9"/>
    </vehicle>
    <vehicle id="554" depart="221.60">
        <route edges="-gneE2 gneE3"/>
    </vehicle>
    <vehicle id="556" depart="222.40">
        <route edges="-gneE3 gneE1 gneE4 gneE9 gneE10"/>
    </vehicle>
    <vehicle id="557" depart="222.80">
        <route edges="gneE4 gneE9 gneE11 gneE14"/>
    </vehicle>
    <vehicle id="565" depart="226.00">
        <route edges="-gneE16 -gneE12 -gneE9 -gneE4 -gneE1"/>
    </vehicle>
    <vehicle id="566" depart="226.40">
        <route edges="gneE3 gneE6"/>
    </vehicle>
    <vehicle id="572" depart="228.80">
        <route edges="-gneE3 gneE1 gneE4 gneE9 gneE10"/>
    </vehicle>
    <vehicle id="580" depart="232.00">
        <route edges="gneE1 gneE4 gneE9 gneE10"/>
    </vehicle>
    <vehicle id="585" depart="234.00">
        <route edges="-gneE12"/>
    </vehicle>
    <vehicle id="586" depart="234.40">
        <route edges="-gneE11 -gneE9 -gneE4 -gneE1 gneE3"/>
    </vehicle>
    <vehicle id="587" depart="234.80">
        <route edges="-gneE13 -gneE10 gneE12 gneE16"/>
    </vehicle>
    <vehicle id="588" depart="235.20">
        <route edges="gneE12"/>
    </vehicle>
    <vehicle id="589" depart="235.60">
        <route edges="-gneE5 -gneE0"/>
    </vehicle>
    <vehicle id="590" depart="236.00">
        <route edges="-gneE5 -gneE0 gneE2 gneE7"/>
    </vehicle>
    <vehicle id="597" depart="238.80">
        <route edges="gneE4 gneE9"/>
    </vehicle>
    <vehicle id="599" depart="239.60">
        <route edges="gneE10 gneE13"/>
    </vehicle>
    <vehicle id="601" depart="240.40">
        <route edges="-gneE7 -gneE2 gneE3 gneE6"/>
    </vehicle>
    <vehicle id="603" depart="241.20">
        <route edges="-gneE4 -gneE1 gneE3 gneE6"/>
    </vehicle>
    <vehicle id="604" depart="241.60">
        <route edges="-gneE16 -gneE12 -gneE9 -gneE4 -gneE1 gneE3"/>
    </vehicle>
    <vehicle id="608" depart="243.20">
        <route edges="-gneE16 -gneE12"/>
    </vehicle>
    <vehicle id="612" depart="244.80">
        <route edges="gneE4 gneE9 gneE11"/>
    </vehicle>
    <vehicle id="625" depart="250.00">
        <route edges="-gneE6 -gneE3 gneE1 gneE4"/>
    </vehicle>
    <vehicle id="630" depart="252.00">
        <route edges="-gneE7 -gneE2 gneE3"/>
    </vehicle>
    <vehicle id="631" depart="252.40">
        <route edges="-gneE11 -gneE9"/>
    </vehicle>
    <vehicle id="637" depart="254.80">
        <route edges="gneE1 gneE4 gneE9 gneE10 gneE13"/>
    </vehicle>
    <vehicle id="638" depart="255.20">
        <route edges="-gneE3 gneE0"/>
    </vehicle>
    <vehicle id="639" depart="255.60">
        <route edges="-gneE16 -gneE12 gneE10"/>
    </vehicle>
    <vehicle id="643" depart="257.20">
        <route edges="-gneE5 -gneE0 gneE1"/>
    </vehicle>
    <vehicle id="648" depart="259.20">
        <route edges="-gneE0 gneE1"/>
    </vehicle>
    <vehicle id="652" depart="260.80">
        <route edges="-gneE3 gneE1 gneE4 gneE9"/>
    </vehicle>
    <vehicle id="654" depart="261.60">
        <route edges="-gneE11 -gneE9 -gneE4 -gneE1 gneE3 gneE6"/>
    </vehicle>
    <vehicle id="660" depart="264.00">
        <route edges="-gneE1"/>
    </vehicle>
    <vehicle id="661" depart="264.40">
        <route edges="-gneE4 -gneE1 gneE2 gneE7"/>
    </vehicle>
    <vehicle id="666" depart="266.40">
        <route edges="gneE4 gneE9 gneE10 gneE13"/>
    </vehicle>
    <vehicle id="668" depart="267.20">
        <route edges="-gneE12 -gneE9 -gneE4 -gneE1"/>
    </vehicle>
    <vehicle id="672" depart="268.80">
        <route edges="gneE4 gneE9 gneE11 gneE14"/>
    </vehicle>
    <vehicle id="675" depart="270.00">
        <route edges="-gneE16 -gneE12 -gneE9"/>
    </vehicle>
    <vehicle id="681" depart="272.40">
        <route edges="-gneE5 -gneE0 gneE1 gneE4 gneE9 gneE11 gneE14"/>
    </vehicle>
    <vehicle id="684" depart="273.60">
        <route edges="-gneE7 -gneE2 gneE0"/>
    </vehicle>
    <vehicle id="685" depart="274.00">
        <route edges="-gneE4 -gneE1 gneE2 gneE7"/>
    </vehicle>
    <vehicle id="686" depart="274.40">
        <route edges="gneE10 gneE13"/>
    </vehicle>
    <vehicle id="688" depart="275.20">
        <route edges="-gneE10 gneE11 gneE14"/>
    </vehicle>
    <vehicle id="690" depart="276.00">
        <route edges="-gneE3 gneE1"/>
    </vehicle>
    <vehicle id="691" depart="276.40">
        <route edges="-gneE16 -gneE12 -gneE9"/>
    </vehicle>
    <vehicle id="695" depart="278.00">
        <route edges="-gneE12 -gneE9 -gneE4"/>
    </vehicle>
    <vehicle id="698" depart="279.20">
        <route edges="-gneE14 -gneE11 -gneE9 -gneE4 -gneE1 gneE2 gneE7"/>
    </vehicle>
    <vehicle id="702" depart="280.80">
        <route edges="-gneE6 -gneE3 gneE1"/>
    </vehicle>
    <vehicle id="703" depart="281.20">
        <route edges="-gneE16 -gneE12 -gneE9 -gneE4"/>
    </vehicle>
    <vehicle id="704" depart="281.60">
        <route edges="-gneE11 -gneE9 -gneE4"/>
    </vehicle>
    <vehicle id="705" depart="282.00">
        <route edges="-gneE0"/>
    </vehicle>
    <vehicle id="707" depart="282.80">
        <route edges="-gneE5 -gneE0 gneE2 gneE7"/>
    </vehicle>
    <vehicle id="708" depart="283.20">
        <route edges="-gneE9"/>
    </vehicle>
    <vehicle id="716" depart="286.40">
        <route edges="-gneE10"/>
    </vehicle>
    <vehicle id="719" depart="287.60">
        <route edges="-gneE11 -gneE9 -gneE4 -gneE1 gneE2 gneE7"/>
    </vehicle>
    <vehicle id="721" depart="288.40">
        <route edges="-gneE9 -gneE4 -gneE1 gneE2"/>
    </vehicle>
    <vehicle id="724" depart="289.60">
        <route edges="-gneE9 -gneE4 -gneE1"/>
    </vehicle>
    <vehicle id="728" depart="291.20">
        <route edges="-gneE3 gneE1 gneE4 gneE9 gneE10 gneE13"/>
    </vehicle>
    <vehicle id="729" depart="291.60">
        <route edges="-gneE5 -gneE0 gneE1 gneE4 gneE9 gneE10 gneE13"/>
    </vehicle>
    <vehicle id="734" depart="293.60">
        <route edges="gneE11"/>
    </vehicle>
    <vehicle id="736" depart="294.40">
        <route edges="-gneE7 -gneE2 gneE0"/>
    </vehicle>
    <vehicle id="737" depart="294.80">
        <route edges="-gneE3 gneE1 gneE4"/>
    </vehicle>
    <vehicle id="738" depart="295.20">
        <route edges="-gneE14 -gneE11 -gneE9 -gneE4"/>
    </vehicle>
    <vehicle id="743" depart="297.20">
        <route edges="-gneE11 -gneE9 -gneE4 -gneE1 gneE3"/>
    </vehicle>
    <vehicle id="746" depart="298.40">
        <route edges="gneE9 gneE10 gneE13"/>
    </vehicle>
    <vehicle id="747" depart="298.80">
        <route edges="-gneE9 -gneE4 -gneE1 gneE3"/>
    </vehicle>
    <vehicle id="749" depart="299.60">
        <route edges="-gneE16 -gneE12 -gneE9 -gneE4 -gneE1 gneE3"/>
    </vehicle>
    <vehicle id="755" depart="302.00">
        <route edges="gneE11"/>
    </vehicle>
    <vehicle id="758" depart="303.20">
        <route edges="-gneE5 -gneE0 gneE1 gneE4 gneE9 gneE10"/>
    </vehicle>
    <vehicle id="759" depart="303.60">
        <route edges="-gneE4 -gneE1 gneE2 gneE7"/>
    </vehicle>
    <vehicle id="765" depart="306.00">
        <route edges="-gneE9"/>
    </vehicle>
    <vehicle id="766" depart="306.40">
        <route edges="-gneE2 gneE3"/>
    </vehicle>
    <vehicle id="775" depart="310.00">
        <route edges="-gneE3"/>
    </vehicle>
    <vehicle id="781" depart="312.40">
        <route edges="-gneE12 -gneE9 -gneE4 -gneE1 gneE2 gneE7"/>
    </vehicle>
    <vehicle id="786" depart="314.40">
        <route edges="-gneE11"/>
    </vehicle>
    <vehicle id="789" depart="315.60">
        <route edges="-gneE5 -gneE0 gneE1 gneE4 gneE9 gneE10 gneE13"/>
    </vehicle>
    <vehicle id="793" depart="317.20">
        <route edges="-gneE13 -gneE10 gneE12"/>
    </vehicle>
    <vehicle id="796" depart="318.40">
        <route edges="-gneE3 gneE1 gneE4 gneE9 gneE10 gneE13"/>
    </vehicle>
    <vehicle id="797" depart="318.80">
        <route edges="gneE1 gneE4"/>
    </vehicle>
    <vehicle id="802" depart="320.80">
        <route edges="gneE1 gneE4 gneE9 gneE10"/>
    </vehicle>
    <vehicle id="806" depart="322.40">
        <route edges="-gneE3 gneE0"/>
    </vehicle>
    <vehicle id="807" depart="322.80">
        <route edges="-gneE9 -gneE4"/>
    </vehicle>
    <vehicle id="808" depart="323.20">
        <route edges="-gneE14 -gneE11 gneE12"/>
    </vehicle>
    <vehicle id="815" depart="326.00">
        <route edges="gneE12"/>
    </vehicle>
    <vehicle id="817" depart="326.80">
        <route edges="-gneE9 -gneE4 -gneE1 gneE3 gneE6"/>
    </vehicle>
    <vehicle id="822" depart="328.80">
        <route edges="-gneE7 -gneE2 gneE3 gneE6"/>
    </vehicle>
    <vehicle id="827" depart="330.80">
        <route edges="-gneE12 -gneE9 -gneE4 -gneE1 gneE3 gneE6"/>
    </vehicle>
    <vehicle id="830" depart="332.00">
        <route edges="gneE12"/>
    </vehicle>
    <vehicle id="832" depart="332.80">
        <route edges="-gneE3 gneE1 gneE4 gneE9 gneE10 gneE13"/>
    </vehicle>
    <vehicle id="836" depart="334.40">
        <route edges="-gneE3 gneE1 gneE4 gneE9 gneE11 gneE14"/>
    </vehicle>
    <vehicle id="839" depart="335.60">
        <route edges="-gneE3 gneE0"/>
    </vehicle>
    <vehicle id="840" depart="336.00">
        <route edges="-gneE0"/>
    </vehicle>
    <vehicle id="845" depart="338.00">
        <route edges="-gneE12 -gneE9"/>
    </vehicle>
    <vehicle id="857" depart="342.80">
        <route edges="-gneE11 -gneE9 -gneE4 -gneE1 gneE3 gneE6"/>
    </vehicle>
    <vehicle id="863" depart="345.20">
        <route edges="gneE1 gneE4 gneE9 gneE10 gneE13"/>
    </vehicle>
    <vehicle id="866" depart="346.40">
        <route edges="gneE1"/>
    </vehicle>
    <vehicle id="872" depart="348.80">
        <route edges="-gneE14 -gneE11 -gneE9 -gneE4 -gneE1 gneE3"/>
    </vehicle>
    <vehicle id="879" depart="351.60">
        <route edges="gneE12"/>
    </vehicle>
    <vehicle id="888" depart="355.20">
        <route edges="gneE4"/>
    </vehicle>
    <vehicle id="891" depart="356.40">
        <route edges="-gneE5 -gneE0 gneE2"/>
    </vehicle>
    <vehicle id="892" depart="356.80">
        <route edges="-gneE14 -gneE11 -gneE9"/>
    </vehicle>
    <vehicle id="895" depart="358.00">
        <route edges="gneE0 gneE5"/>
    </vehicle>
    <vehicle id="898" depart="359.20">
        <route edges="-gneE9 -gneE4 -gneE1 gneE3 gneE6"/>
    </vehicle>
    <vehicle id="910" depart="364.00">
        <route edges="-gneE9 -gneE4"/>
    </vehicle>
    <vehicle id="916" depart="366.40">
        <route edges="-gneE14 -gneE11 -gneE9"/>
    </vehicle>
    <vehicle id="930" depart="372.00">
        <route edges="gneE12"/>
    </vehicle>
    <vehicle id="933" depart="373.20">
        <route edges="-gneE3 gneE1 gneE4 gneE9"/>
    </vehicle>
    <vehicle id="934" depart="373.60">
        <route edges="-gneE12 -gneE9 -gneE4 -gneE1 gneE3 gneE6"/>
    </vehicle>
    <vehicle id="938" depart="375.20">
        <route edges="-gneE12 gneE10"/>
    </vehicle>
    <vehicle id="941" depart="376.40">
        <route edges="-gneE16 -gneE12 gneE10 gneE13"/>
    </vehicle>
    <vehicle id="950" depart="380.00">
        <route edges="-gneE14 -gneE11 -gneE9 -gneE4 -gneE1 gneE3"/>
    </vehicle>
    <vehicle id="951" depart="380.40">
        <route edges="-gneE11 -gneE9 -gneE4 -gneE1 gneE2 gneE7"/>
    </vehicle>
    <vehicle id="952" depart="380.80">
        <route edges="-gneE0 gneE1 gneE4"/>
    </vehicle>
    <vehicle id="957" depart="382.80">
        <route edges="-gneE16 -gneE12 -gneE9 -gneE4 -gneE1 gneE2"/>
    </vehicle>
    <vehicle id="966" depart="386.40">
        <route edges="-gneE16 -gneE12 -gneE9 -gneE4 -gneE1 gneE2"/>
    </vehicle>
    <vehicle id="972" depart="388.80">
        <route edges="-gneE13 -gneE10 gneE12"/>
    </vehicle>
    <vehicle id="975" depart="390.00">
        <route edges="-gneE12 gneE10"/>
    </vehicle>
    <vehicle id="976" depart="390.40">
        <route edges="-gneE6 -gneE3 gneE1 gneE4"/>
    </vehicle>
    <vehicle id="990" depart="396.00">
        <route edges="-gneE12 -gneE9 -gneE4"/>
    </vehicle>
    <vehicle id="997" depart="398.80">
        <route edges="-gneE16 -gneE12 -gneE9 -gneE4 -gneE1 gneE2"/>
    </vehicle>
    <vehicle id="998" depart="399.20">
        <route edges="-gneE6 -gneE3 gneE0"/>
    </vehicle>
    <vehicle id="1001" depart="400.40">
        <route edges="-gneE16 -gneE12 gneE10"/>
    </vehicle>
    <vehicle id="1002" depart="400.80">
        <route edges="-gneE11 -gneE9 -gneE4 -gneE1 gneE2 gneE7"/>
    </vehicle>
    <vehicle id="1005" depart="402.00">
        <route edges="gneE10"/>
    </vehicle>
    <vehicle id="1016" depart="406.40">
        <route edges="-gneE10 gneE11"/>
    </vehicle>
    <vehicle id="1021" depart="408.40">
        <route edges="-gneE12 -gneE9 -gneE4 -gneE1 gneE2"/>
    </vehicle>
    <vehicle id="1024" depart="409.60">
        <route edges="gneE2"/>
    </vehicle>
    <vehicle id="1025" depart="410.00">
        <route edges="-gneE11 -gneE9 -gneE4 -gneE1 gneE3 gneE6"/>
    </vehicle>
    <vehicle id="1027" depart="410.80">
        <route edges="gneE4 gneE9 gneE10 gneE13"/>
    </vehicle>
    <vehicle id="1029" depart="411.60">
        <route edges="-gneE7 -gneE2 gneE0"/>
    </vehicle>
    <vehicle id="1036" depart="414.40">
        <route edges="-gneE12 gneE10 gneE13"/>
    </vehicle>
    <vehicle id="1037" depart="414.80">
        <route edges="-gneE13 -gneE10 gneE11"/>
    </vehicle>
    <vehicle id="1038" depart="415.20">
        <route edges="gneE9 gneE10"/>
    </vehicle>
    <vehicle id="1040" depart="416.00">
        <route edges="gneE1 gneE4 gneE9 gneE10"/>
    </vehicle>
    <vehicle id="1050" depart="420.00">
        <route edges="-gneE11 -gneE9 -gneE4 -gneE1 gneE3 gneE6"/>
    </vehicle>
    <vehicle id="1059" depart="423.60">
        <route edges="-gneE0 gneE1 gneE4 gneE9 gneE11 gneE14"/>
    </vehicle>
    <vehicle id="1063" depart="425.20">
        <route edges="gneE9 gneE10"/>
    </vehicle>
    <vehicle id="1065" depart="426.00">
        <route edges="gneE4 gneE9 gneE10"/>
    </vehicle>
    <vehicle id="1067" depart="426.80">
        <route edges="-gneE9 -gneE4 -gneE1 gneE2 gneE7"/>
    </vehicle>