<?xml version="1.0" encoding="UTF-8"?>

<!-- generated on 2021-09-29 19:30:55 by Eclipse SUMO duarouter Version 1.9.2
<configuration xmlns:xsi="http://www.w3.org/2001/XMLSchema-instance" xsi:noNamespaceSchemaLocation="http://sumo.dlr.de/xsd/duarouterConfiguration.xsd">

    <input>
        <net-file value="/home/sonic/Desktop/nets/case03/intersection.net.xml"/>
        <route-files value="trips.trips.xml"/>
    </input>

    <output>
        <output-file value="intersection_random45.rou.xml"/>
        <alternatives-output value="intersection_random45.rou.alt.xml"/>
    </output>

    <time>
        <begin value="0"/>
        <end value="3600.0"/>
    </time>

    <report>
        <no-warnings value="true"/>
        <ignore-errors value="true"/>
        <no-step-log value="true"/>
    </report>

</configuration>
-->

<routes xmlns:xsi="http://www.w3.org/2001/XMLSchema-instance" xsi:noNamespaceSchemaLocation="http://sumo.dlr.de/xsd/routes_file.xsd">
    <vehicle id="0" depart="0.00">
        <route edges="-gneE6 -gneE3 gneE1 gneE4 gneE9 gneE10 gneE13"/>
    </vehicle>
    <vehicle id="1" depart="0.40">
        <route edges="gneE4 gneE9 gneE11"/>
    </vehicle>
    <vehicle id="4" depart="1.60">
        <route edges="gneE4 gneE9 gneE10 gneE13"/>
    </vehicle>
    <vehicle id="5" depart="2.00">
        <route edges="-gneE5 -gneE0 gneE1 gneE4 gneE9 gneE10 gneE13"/>
    </vehicle>
    <vehicle id="10" depart="4.00">
        <route edges="-gneE6 -gneE3"/>
    </vehicle>
    <vehicle id="14" depart="5.60">
        <route edges="-gneE5 -gneE0 gneE1 gneE4 gneE9 gneE10"/>
    </vehicle>
    <vehicle id="16" depart="6.40">
        <route edges="gneE1 gneE4 gneE9 gneE10 gneE13"/>
    </vehicle>
    <vehicle id="20" depart="8.00">
        <route edges="-gneE16 -gneE12 gneE10 gneE13"/>
    </vehicle>
    <vehicle id="22" depart="8.80">
        <route edges="gneE1 gneE4 gneE9 gneE10 gneE13"/>
    </vehicle>
    <vehicle id="26" depart="10.40">
        <route edges="-gneE5 -gneE0 gneE1 gneE4 gneE9 gneE11 gneE14"/>
    </vehicle>
    <vehicle id="28" depart="11.20">
        <route edges="-gneE6 -gneE3 gneE1 gneE4 gneE9 gneE10"/>
    </vehicle>
    <vehicle id="39" depart="15.60">
        <route edges="-gneE14 -gneE11 gneE12"/>
    </vehicle>
    <vehicle id="49" depart="19.60">
        <route edges="gneE10 gneE13"/>
    </vehicle>
    <vehicle id="51" depart="20.40">
        <route edges="-gneE5 -gneE0 gneE1 gneE4"/>
    </vehicle>
    <vehicle id="64" depart="25.60">
        <route edges="gneE9 gneE10"/>
    </vehicle>
    <vehicle id="65" depart="26.00">
        <route edges="-gneE5 -gneE0 gneE1 gneE4 gneE9 gneE11"/>
    </vehicle>
    <vehicle id="67" depart="26.80">
        <route edges="-gneE12 -gneE9 -gneE4 -gneE1 gneE2 gneE7"/>
    </vehicle>
    <vehicle id="68" depart="27.20">
        <route edges="-gneE4 -gneE1"/>
    </vehicle>
    <vehicle id="71" depart="28.40">
        <route edges="-gneE6 -gneE3 gneE1"/>
    </vehicle>
    <vehicle id="72" depart="28.80">
        <route edges="-gneE14 -gneE11 -gneE9 -gneE4 -gneE1 gneE2"/>
    </vehicle>
    <vehicle id="87" depart="34.80">
        <route edges="-gneE2 gneE3 gneE6"/>
    </vehicle>
    <vehicle id="97" depart="38.80">
        <route edges="-gneE2 gneE0"/>
    </vehicle>
    <vehicle id="100" depart="40.00">
        <route edges="gneE2"/>
    </vehicle>
    <vehicle id="101" depart="40.40">
        <route edges="-gneE6 -gneE3 gneE1 gneE4 gneE9 gneE11 gneE14"/>
    </vehicle>
    <vehicle id="106" depart="42.40">
        <route edges="-gneE7 -gneE2 gneE3 gneE6"/>
    </vehicle>
    <vehicle id="107" depart="42.80">
        <route edges="-gneE11 -gneE9"/>
    </vehicle>
    <vehicle id="108" depart="43.20">
        <route edges="gneE0"/>
    </vehicle>
    <vehicle id="110" depart="44.00">
        <route edges="-gneE4 -gneE1 gneE3 gneE6"/>
    </vehicle>
    <vehicle id="112" depart="44.80">
        <route edges="-gneE14 -gneE11 -gneE9 -gneE4 -gneE1 gneE3"/>
    </vehicle>
    <vehicle id="115" depart="46.00">
        <route edges="-gneE11 -gneE9 -gneE4 -gneE1"/>
    </vehicle>
    <vehicle id="116" depart="46.40">
        <route edges="-gneE4 -gneE1 gneE3 gneE6"/>
    </vehicle>
    <vehicle id="119" depart="47.60">
        <route edges="-gneE6 -gneE3 gneE1 gneE4 gneE9 gneE11 gneE14"/>
    </vehicle>
    <vehicle id="122" depart="48.80">
        <route edges="gneE1 gneE4 gneE9"/>
    </vehicle>
    <vehicle id="124" depart="49.60">
        <route edges="-gneE10 gneE11"/>
    </vehicle>
    <vehicle id="125" depart="50.00">
        <route edges="-gneE16 -gneE12 -gneE9 -gneE4 -gneE1 gneE3 gneE6"/>
    </vehicle>
    <vehicle id="137" depart="54.80">
        <route edges="gneE2 gneE7"/>
    </vehicle>
    <vehicle id="139" depart="55.60">
        <route edges="-gneE5 -gneE0 gneE2 gneE7"/>
    </vehicle>
    <vehicle id="145" depart="58.00">
        <route edges="gneE12 gneE16"/>
    </vehicle>
    <vehicle id="151" depart="60.40">
        <route edges="gneE11"/>
    </vehicle>
    <vehicle id="152" depart="60.80">
        <route edges="-gneE0 gneE1"/>
    </vehicle>
    <vehicle id="159" depart="63.60">
        <route edges="-gneE2 gneE0 gneE5"/>
    </vehicle>
    <vehicle id="162" depart="64.80">
        <route edges="-gneE9 -gneE4 -gneE1"/>
    </vehicle>
    <vehicle id="166" depart="66.40">
        <route edges="gneE1 gneE4 gneE9 gneE11"/>
    </vehicle>
    <vehicle id="168" depart="67.20">
        <route edges="gneE1 gneE4 gneE9 gneE10 gneE13"/>
    </vehicle>
    <vehicle id="172" depart="68.80">
        <route edges="-gneE11 -gneE9 -gneE4 -gneE1 gneE3 gneE6"/>
    </vehicle>
    <vehicle id="176" depart="70.40">
        <route edges="gneE1"/>
    </vehicle>
    <vehicle id="179" depart="71.60">
        <route edges="-gneE16 -gneE12 gneE10 gneE13"/>
    </vehicle>
    <vehicle id="182" depart="72.80">
        <route edges="gneE0 gneE5"/>
    </vehicle>
    <vehicle id="185" depart="74.00">
        <route edges="-gneE4"/>
    </vehicle>
    <vehicle id="188" depart="75.20">
        <route edges="gneE11 gneE14"/>
    </vehicle>
    <vehicle id="190" depart="76.00">
        <route edges="-gneE16 -gneE12 -gneE9 -gneE4 -gneE1 gneE2 gneE7"/>
    </vehicle>
    <vehicle id="195" depart="78.00">
        <route edges="-gneE16 -gneE12 -gneE9 -gneE4"/>
    </vehicle>
    <vehicle id="196" depart="78.40">
        <route edges="-gneE3"/>
    </vehicle>
    <vehicle id="203" depart="81.20">
        <route edges="-gneE1 gneE2"/>
    </vehicle>
    <vehicle id="204" depart="81.60">
        <route edges="-gneE13 -gneE10"/>
    </vehicle>
    <vehicle id="208" depart="83.20">
        <route edges="-gneE4 -gneE1 gneE3 gneE6"/>
    </vehicle>
    <vehicle id="211" depart="84.40">
        <route edges="-gneE11 -gneE9 -gneE4"/>
    </vehicle>
    <vehicle id="215" depart="86.00">
        <route edges="gneE2 gneE7"/>
    </vehicle>
    <vehicle id="218" depart="87.20">
        <route edges="-gneE10 gneE11"/>
    </vehicle>
    <vehicle id="221" depart="88.40">
        <route edges="-gneE4"/>
    </vehicle>
    <vehicle id="223" depart="89.20">
        <route edges="-gneE0 gneE2 gneE7"/>
    </vehicle>
    <vehicle id="225" depart="90.00">
        <route edges="-gneE0 gneE1 gneE4 gneE9 gneE10 gneE13"/>
    </vehicle>
    <vehicle id="229" depart="91.60">
        <route edges="-gneE7 -gneE2 gneE0"/>
    </vehicle>
    <vehicle id="231" depart="92.40">
        <route edges="-gneE3 gneE1 gneE4 gneE9 gneE10 gneE13"/>
    </vehicle>
    <vehicle id="233" depart="93.20">
        <route edges="gneE9 gneE11"/>
    </vehicle>
    <vehicle id="242" depart="96.80">
        <route edges="-gneE4 -gneE1 gneE3"/>
    </vehicle>
    <vehicle id="243" depart="97.20">
        <route edges="-gneE10 gneE12 gneE16"/>
    </vehicle>
    <vehicle id="244" depart="97.60">
        <route edges="-gneE5 -gneE0 gneE1"/>
    </vehicle>
    <vehicle id="245" depart="98.00">
        <route edges="-gneE5 -gneE0 gneE1 gneE4 gneE9 gneE10"/>
    </vehicle>
    <vehicle id="246" depart="98.40">
        <route edges="-gneE2 gneE0"/>
    </vehicle>
    <vehicle id="247" depart="98.80">
        <route edges="gneE4"/>
    </vehicle>
    <vehicle id="252" depart="100.80">
        <route edges="-gneE11 -gneE9 -gneE4 -gneE1"/>
    </vehicle>
    <vehicle id="255" depart="102.00">
        <route edges="-gneE0 gneE1"/>
    </vehicle>
    <vehicle id="256" depart="102.40">
        <route edges="-gneE2 gneE0"/>
    </vehicle>
    <vehicle id="257" depart="102.80">
        <route edges="-gneE0 gneE1 gneE4 gneE9 gneE11 gneE14"/>
    </vehicle>
    <vehicle id="259" depart="103.60">
        <route edges="-gneE14 -gneE11 -gneE9 -gneE4 -gneE1 gneE2"/>
    </vehicle>
    <vehicle id="260" depart="104.00">
        <route edges="-gneE11"/>
    </vehicle>
    <vehicle id="262" depart="104.80">
        <route edges="-gneE3 gneE1 gneE4 gneE9 gneE11 gneE14"/>
    </vehicle>
    <vehicle id="266" depart="106.40">
        <route edges="-gneE7 -gneE2 gneE0"/>
    </vehicle>
    <vehicle id="270" depart="108.00">
        <route edges="gneE9"/>
    </vehicle>
    <vehicle id="272" depart="108.80">
        <route edges="gneE1 gneE4 gneE9 gneE11 gneE14"/>
    </vehicle>
    <vehicle id="277" depart="110.80">
        <route edges="gneE3 gneE6"/>
    </vehicle>
    <vehicle id="278" depart="111.20">
        <route edges="-gneE14 -gneE11 gneE12"/>
    </vehicle>
    <vehicle id="282" depart="112.80">
        <route edges="gneE4 gneE9 gneE10"/>
    </vehicle>
    <vehicle id="283" depart="113.20">
        <route edges="-gneE14 -gneE11 -gneE9 -gneE4 -gneE1 gneE2 gneE7"/>
    </vehicle>
    <vehicle id="285" depart="114.00">
        <route edges="gneE4"/>
    </vehicle>
    <vehicle id="290" depart="116.00">
        <route edges="gneE9 gneE10"/>
    </vehicle>
    <vehicle id="291" depart="116.40">
        <route edges="-gneE4 -gneE1 gneE3 gneE6"/>
    </vehicle>
    <vehicle id="298" depart="119.20">
        <route edges="-gneE10 gneE11"/>
    </vehicle>
    <vehicle id="311" depart="124.40">
        <route edges="-gneE9 -gneE4 -gneE1 gneE3"/>
    </vehicle>
    <vehicle id="317" depart="126.80">
        <route edges="-gneE11 -gneE9 -gneE4 -gneE1 gneE2 gneE7"/>
    </vehicle>
    <vehicle id="323" depart="129.20">
        <route edges="-gneE5 -gneE0 gneE1"/>
    </vehicle>
    <vehicle id="329" depart="131.60">
        <route edges="-gneE11"/>
    </vehicle>
    <vehicle id="330" depart="132.00">
        <route edges="gneE4 gneE9 gneE11 gneE14"/>
    </vehicle>
    <vehicle id="333" depart="133.20">
        <route edges="-gneE16 -gneE12 -gneE9 -gneE4 -gneE1 gneE2"/>
    </vehicle>
    <vehicle id="344" depart="137.60">
        <route edges="-gneE6 -gneE3 gneE0 gneE5"/>
    </vehicle>
    <vehicle id="345" depart="138.00">
        <route edges="-gneE3"/>
    </vehicle>
    <vehicle id="346" depart="138.40">
        <route edges="-gneE13 -gneE10 gneE12 gneE16"/>
    </vehicle>
    <vehicle id="347" depart="138.80">
        <route edges="gneE0"/>
    </vehicle>
    <vehicle id="350" depart="140.00">
        <route edges="-gneE0 gneE1 gneE4"/>
    </vehicle>
    <vehicle id="354" depart="141.60">
        <route edges="-gneE12 -gneE9"/>
    </vehicle>
    <vehicle id="355" depart="142.00">
        <route edges="-gneE6 -gneE3 gneE1 gneE4 gneE9 gneE11"/>
    </vehicle>
    <vehicle id="356" depart="142.40">
        <route edges="-gneE11 -gneE9 -gneE4 -gneE1"/>
    </vehicle>
    <vehicle id="358" depart="143.20">
        <route edges="-gneE14 -gneE11 -gneE9 -gneE4 -gneE1 gneE3"/>
    </vehicle>
    <vehicle id="359" depart="143.60">
        <route edges="-gneE2 gneE0"/>
    </vehicle>
    <vehicle id="360" depart="144.00">
        <route edges="-gneE3 gneE1 gneE4 gneE9"/>
    </vehicle>
    <vehicle id="361" depart="144.40">
        <route edges="-gneE3 gneE1 gneE4"/>
    </vehicle>
    <vehicle id="370" depart="148.00">
        <route edges="-gneE3 gneE0"/>
    </vehicle>
    <vehicle id="371" depart="148.40">
        <route edges="-gneE9 -gneE4 -gneE1"/>
    </vehicle>
    <vehicle id="373" depart="149.20">
        <route edges="gneE1 gneE4 gneE9"/>
    </vehicle>
    <vehicle id="375" depart="150.00">
        <route edges="gneE12"/>
    </vehicle>
    <vehicle id="376" depart="150.40">
        <route edges="gneE4 gneE9 gneE11"/>
    </vehicle>
    <vehicle id="384" depart="153.60">
        <route edges="-gneE14 -gneE11 -gneE9 -gneE4 -gneE1"/>
    </vehicle>
    <vehicle id="389" depart="155.60">
        <route edges="-gneE12 -gneE9 -gneE4 -gneE1 gneE3 gneE6"/>
    </vehicle>
    <vehicle id="395" depart="158.00">
        <route edges="-gneE1 gneE2"/>
    </vehicle>
    <vehicle id="396" depart="158.40">
        <route edges="-gneE7 -gneE2 gneE3 gneE6"/>
    </vehicle>
    <vehicle id="401" depart="160.40">
        <route edges="-gneE4 -gneE1"/>
    </vehicle>
    <vehicle id="406" depart="162.40">
        <route edges="-gneE0"/>
    </vehicle>
    <vehicle id="407" depart="162.80">
        <route edges="-gneE3 gneE0 gneE5"/>
    </vehicle>
    <vehicle id="411" depart="164.40">
        <route edges="gneE0 gneE5"/>
    </vehicle>
    <vehicle id="412" depart="164.80">
        <route edges="-gneE10 gneE12 gneE16"/>
    </vehicle>
    <vehicle id="417" depart="166.80">
        <route edges="-gneE11 -gneE9 -gneE4 -gneE1 gneE3"/>
    </vehicle>
    <vehicle id="420" depart="168.00">
        <route edges="gneE0"/>
    </vehicle>
    <vehicle id="426" depart="170.40">
        <route edges="-gneE16 -gneE12 -gneE9 -gneE4 -gneE1"/>
    </vehicle>
    <vehicle id="434" depart="173.60">
        <route edges="gneE9 gneE11 gneE14"/>
    </vehicle>
    <vehicle id="439" depart="175.60">
        <route edges="-gneE4 -gneE1 gneE3 gneE6"/>
    </vehicle>
    <vehicle id="442" depart="176.80">
        <route edges="gneE3 gneE6"/>
    </vehicle>
    <vehicle id="449" depart="179.60">
        <route edges="-gneE5 -gneE0 gneE1 gneE4 gneE9"/>
    </vehicle>
    <vehicle id="453" depart="181.20">
        <route edges="-gneE13 -gneE10 gneE11"/>
    </vehicle>
    <vehicle id="456" depart="182.40">
        <route edges="-gneE3 gneE0 gneE5"/>
    </vehicle>
    <vehicle id="459" depart="183.60">
        <route edges="-gneE12 -gneE9 -gneE4 -gneE1 gneE3 gneE6"/>
    </vehicle>
    <vehicle id="463" depart="185.20">
        <route edges="-gneE3 gneE1 gneE4 gneE9 gneE11 gneE14"/>
    </vehicle>
    <vehicle id="468" depart="187.20">
        <route edges="-gneE0 gneE1 gneE4 gneE9 gneE10"/>
    </vehicle>
    <vehicle id="473" depart="189.20">
        <route edges="-gneE5 -gneE0 gneE1"/>
    </vehicle>
    <vehicle id="474" depart="189.60">
        <route edges="-gneE14 -gneE11 -gneE9 -gneE4 -gneE1 gneE2 gneE7"/>
    </vehicle>
    <vehicle id="475" depart="190.00">
        <route edges="-gneE6 -gneE3 gneE0"/>
    </vehicle>
    <vehicle id="495" depart="198.00">
        <route edges="-gneE6 -gneE3"/>
    </vehicle>
    <vehicle id="502" depart="200.80">
        <route edges="-gneE14 -gneE11"/>
    </vehicle>
    <vehicle id="509" depart="203.60">
        <route edges="-gneE0 gneE1 gneE4 gneE9 gneE10 gneE13"/>
    </vehicle>
    <vehicle id="515" depart="206.00">
        <route edges="-gneE5 -gneE0 gneE1 gneE4 gneE9 gneE11"/>
    </vehicle>
    <vehicle id="518" depart="207.20">
        <route edges="-gneE16 -gneE12"/>
    </vehicle>
    <vehicle id="526" depart="210.40">
        <route edges="gneE2 gneE7"/>
    </vehicle>
    <vehicle id="532" depart="212.80">
        <route edges="gneE11 gneE14"/>
    </vehicle>
    <vehicle id="536" depart="214.40">
        <route edges="-gneE3 gneE1 gneE4 gneE9 gneE10 gneE13"/>
    </vehicle>
    <vehicle id="540" depart="216.00">
        <route edges="-gneE3 gneE1"/>
    </vehicle>
    <vehicle id="546" depart="218.40">
        <route edges="-gneE6 -gneE3"/>
    </vehicle>
    <vehicle id="547" depart="218.80">
        <route edges="gneE2 gneE7"/>
    </vehicle>
    <vehicle id="548" depart="219.20">
        <route edges="-gneE1 gneE3"/>
    </vehicle>
    <vehicle id="551" depart="220.40">
        <route edges="gneE4"/>
    </vehicle>
    <vehicle id="553" depart="221.20">
        <route edges="-gneE12 -gneE9 -gneE4 -gneE1 gneE3 gneE6"/>
    </vehicle>
    <vehicle id="555" depart="222.00">
        <route edges="gneE9 gneE10 gneE13"/>
    </vehicle>
    <vehicle id="559" depart="223.60">
        <route edges="-gneE10 gneE12 gneE16"/>
    </vehicle>
    <vehicle id="560" depart="224.00">
        <route edges="-gneE6 -gneE3 gneE1 gneE4 gneE9 gneE10"/>
    </vehicle>
    <vehicle id="570" depart="228.00">
        <route edges="-gneE3 gneE1 gneE4 gneE9 gneE10"/>
    </vehicle>
    <vehicle id="571" depart="228.40">
        <route edges="-gneE10"/>
    </vehicle>
    <vehicle id="574" depart="229.60">
        <route edges="-gneE12 -gneE9 -gneE4 -gneE1 gneE2 gneE7"/>
    </vehicle>
    <vehicle id="582" depart="232.80">
        <route edges="-gneE16 -gneE12 -gneE9"/>
    </vehicle>
    <vehicle id="584" depart="233.60">
        <route edges="-gneE1"/>
    </vehicle>
    <vehicle id="591" depart="236.40">
        <route edges="gneE1 gneE4"/>
    </vehicle>
    <vehicle id="593" depart="237.20">
        <route edges="gneE12"/>
    </vehicle>
    <vehicle id="595" depart="238.00">
        <route edges="-gneE14 -gneE11 -gneE9 -gneE4 -gneE1 gneE2"/>
    </vehicle>
    <vehicle id="600" depart="240.00">
        <route edges="-gneE11 -gneE9 -gneE4 -gneE1 gneE2"/>
    </vehicle>
    <vehicle id="601" depart="240.40">
        <route edges="-gneE9 -gneE4 -gneE1"/>
    </vehicle>
    <vehicle id="606" depart="242.40">
        <route edges="gneE4"/>
    </vehicle>
    <vehicle id="610" depart="244.00">
        <route edges="-gneE0"/>
    </vehicle>
    <vehicle id="612" depart="244.80">
        <route edges="gneE1 gneE4 gneE9 gneE11"/>
    </vehicle>
    <vehicle id="616" depart="246.40">
        <route edges="-gneE13 -gneE10 gneE12"/>
    </vehicle>
    <vehicle id="617" depart="246.80">
        <route edges="gneE10"/>
    </vehicle>
    <vehicle id="619" depart="247.60">
        <route edges="-gneE9 -gneE4 -gneE1 gneE3"/>
    </vehicle>
    <vehicle id="622" depart="248.80">
        <route edges="gneE1 gneE4 gneE9 gneE11"/>
    </vehicle>
    <vehicle id="625" depart="250.00">
        <route edges="-gneE5 -gneE0"/>
    </vehicle>
    <vehicle id="626" depart="250.40">
        <route edges="-gneE0 gneE1"/>
    </vehicle>
    <vehicle id="638" depart="255.20">
        <route edges="-gneE4 -gneE1"/>
    </vehicle>
    <vehicle id="641" depart="256.40">
        <route edges="-gneE12"/>
    </vehicle>
    <vehicle id="642" depart="256.80">
        <route edges="-gneE12"/>
    </vehicle>
    <vehicle id="643" depart="257.20">
        <route edges="-gneE10 gneE11 gneE14"/>
    </vehicle>
    <vehicle id="644" depart="257.60">
        <route edges="gneE12"/>
    </vehicle>
    <vehicle id="645" depart="258.00">
        <route edges="-gneE3 gneE1 gneE4 gneE9 gneE11"/>
    </vehicle>
    <vehicle id="650" depart="260.00">
        <route edges="-gneE12 gneE10 gneE13"/>
    </vehicle>
    <vehicle id="658" depart="263.20">
        <route edges="-gneE0 gneE1 gneE4 gneE9 gneE10 gneE13"/>
    </vehicle>
    <vehicle id="661" depart="264.40">
        <route edges="-gneE12 -gneE9 -gneE4 -gneE1 gneE3"/>
    </vehicle>
    <vehicle id="666" depart="266.40">
        <route edges="gneE2 gneE7"/>
    </vehicle>
    <vehicle id="667" depart="266.80">
        <route edges="-gneE0 gneE1 gneE4 gneE9 gneE10"/>
    </vehicle>
    <vehicle id="668" depart="267.20">
        <route edges="-gneE3 gneE0"/>
    </vehicle>
    <vehicle id="670" depart="268.00">
        <route edges="-gneE11 -gneE9 -gneE4 -gneE1 gneE2 gneE7"/>
    </vehicle>
    <vehicle id="672" depart="268.80">
        <route edges="-gneE13 -gneE10 gneE12"/>
    </vehicle>
    <vehicle id="674" depart="269.60">
        <route edges="-gneE13 -gneE10 gneE11 gneE14"/>
    </vehicle>
    <vehicle id="678" depart="271.20">
        <route edges="-gneE14 -gneE11 -gneE9 -gneE4"/>
    </vehicle>
    <vehicle id="681" depart="272.40">
        <route edges="-gneE3 gneE1 gneE4 gneE9 gneE11 gneE14"/>
    </vehicle>
    <vehicle id="682" depart="272.80">
        <route edges="-gneE12 -gneE9 -gneE4 -gneE1 gneE2"/>
    </vehicle>
    <vehicle id="684" depart="273.60">
        <route edges="-gneE5 -gneE0 gneE2"/>
    </vehicle>
    <vehicle id="686" depart="274.40">
        <route edges="-gneE16 -gneE12"/>
    </vehicle>
    <vehicle id="700" depart="280.00">
        <route edges="-gneE4 -gneE1 gneE3"/>
    </vehicle>
    <vehicle id="701" depart="280.40">
        <route edges="-gneE16 -gneE12 -gneE9 -gneE4 -gneE1 gneE3"/>
    </vehicle>
    <vehicle id="705" depart="282.00">
        <route edges="-gneE3 gneE1 gneE4 gneE9 gneE10"/>
    </vehicle>
    <vehicle id="710" depart="284.00">
        <route edges="-gneE2"/>
    </vehicle>
    <vehicle id="713" depart="285.20">
        <route edges="-gneE16 -gneE12"/>
    </vehicle>
    <vehicle id="715" depart="286.00">
        <route edges="-gneE0"/>
    </vehicle>
    <vehicle id="716" depart="286.40">
        <route edges="-gneE11 -gneE9 -gneE4 -gneE1 gneE2 gneE7"/>
    </vehicle>
    <vehicle id="718" depart="287.20">
        <route edges="-gneE3 gneE1 gneE4"/>
    </vehicle>
    <vehicle id="720" depart="288.00">
        <route edges="-gneE6 -gneE3 gneE1 gneE4"/>
    </vehicle>
    <vehicle id="721" depart="288.40">
        <route edges="gneE1 gneE4 gneE9 gneE10 gneE13"/>
    </vehicle>
    <vehicle id="722" depart="288.80">
        <route edges="-gneE4 -gneE1"/>
    </vehicle>
    <vehicle id="724" depart="289.60">
        <route edges="-gneE14 -gneE11 -gneE9 -gneE4"/>
    </vehicle>
    <vehicle id="725" depart="290.00">
        <route edges="-gneE11 -gneE9"/>
    </vehicle>
    <vehicle id="730" depart="292.00">
        <route edges="gneE11"/>
    </vehicle>
    <vehicle id="731" depart="292.40">
        <route edges="-gneE14 -gneE11 gneE12"/>
    </vehicle>
    <vehicle id="734" depart="293.60">
        <route edges="-gneE0 gneE1 gneE4 gneE9 gneE11 gneE14"/>
    </vehicle>
    <vehicle id="737" depart="294.80">
        <route edges="gneE11 gneE14"/>
    </vehicle>
    <vehicle id="739" depart="295.60">
        <route edges="-gneE0 gneE1"/>
    </vehicle>
    <vehicle id="741" depart="296.40">
        <route edges="-gneE6 -gneE3 gneE1 gneE4"/>
    </vehicle>
    <vehicle id="744" depart="297.60">
        <route edges="-gneE3 gneE1"/>
    </vehicle>
    <vehicle id="746" depart="298.40">
        <route edges="-gneE5 -gneE0"/>
    </vehicle>
    <vehicle id="748" depart="299.20">
        <route edges="gneE4 gneE9 gneE10 gneE13"/>
    </vehicle>
    <vehicle id="751" depart="300.40">
        <route edges="-gneE12 gneE10"/>
    </vehicle>
    <vehicle id="754" depart="301.60">
        <route edges="gneE11 gneE14"/>
    </vehicle>
    <vehicle id="756" depart="302.40">
        <route edges="gneE1 gneE4"/>
    </vehicle>
    <vehicle id="758" depart="303.20">
        <route edges="gneE10"/>
    </vehicle>
    <vehicle id="760" depart="304.00">
        <route edges="-gneE12 -gneE9 -gneE4 -gneE1 gneE2"/>
    </vehicle>
    <vehicle id="781" depart="312.40">
        <route edges="-gneE3 gneE1 gneE4 gneE9 gneE11"/>
    </vehicle>
    <vehicle id="782" depart="312.80">
        <route edges="gneE9"/>
    </vehicle>
    <vehicle id="790" depart="316.00">
        <route edges="-gneE11 -gneE9 -gneE4 -gneE1 gneE2 gneE7"/>
    </vehicle>
    <vehicle id="797" depart="318.80">
        <route edges="gneE4 gneE9"/>
    </vehicle>
    <vehicle id="799" depart="319.60">
        <route edges="-gneE6 -gneE3 gneE1"/>
    </vehicle>
    <vehicle id="800" depart="320.00">
        <route edges="-gneE9 -gneE4 -gneE1 gneE2 gneE7"/>
    </vehicle>
    <vehicle id="801" depart="320.40">
        <route edges="-gneE1 gneE3"/>
    </vehicle>
    <vehicle id="802" depart="320.80">
        <route edges="gneE4 gneE9 gneE11"/>
    </vehicle>
    <vehicle id="811" depart="324.40">
        <route edges="gneE0 gneE5"/>
    </vehicle>
    <vehicle id="815" depart="326.00">
        <route edges="-gneE3 gneE1 gneE4"/>
    </vehicle>
    <vehicle id="818" depart="327.20">
        <route edges="-gneE0 gneE1 gneE4 gneE9 gneE10"/>
    </vehicle>
    <vehicle id="821" depart="328.40">
        <route edges="gneE1 gneE4 gneE9 gneE10"/>
    </vehicle>
    <vehicle id="830" depart="332.00">
        <route edges="-gneE12 gneE10 gneE13"/>
    </vehicle>
    <vehicle id="833" depart="333.20">
        <route edges="-gneE3 gneE1"/>
    </vehicle>
    <vehicle id="839" depart="335.60">
        <route edges="gneE10 gneE13"/>
    </vehicle>
    <vehicle id="841" depart="336.40">
        <route edges="gneE1 gneE4 gneE9"/>
    </vehicle>
    <vehicle id="843" depart="337.20">
        <route edges="gneE10 gneE13"/>
    </vehicle>
    <vehicle id="847" depart="338.80">
        <route edges="-gneE1 gneE3"/>
    </vehicle>
    <vehicle id="848" depart="339.20">
        <route edges="-gneE10 gneE11"/>
    </vehicle>
    <vehicle id="849" depart="339.60">
        <route edges="-gneE5 -gneE0 gneE2"/>
    </vehicle>
    <vehicle id="854" depart="341.60">
        <route edges="-gneE11 -gneE9 -gneE4 -gneE1 gneE3"/>
    </vehicle>
    <vehicle id="855" depart="342.00">
        <route edges="-gneE14 -gneE11 -gneE9 -gneE4 -gneE1 gneE2 gneE7"/>
    </vehicle>
    <vehicle id="857" depart="342.80">
        <route edges="gneE1 gneE4 gneE9 gneE11"/>
    </vehicle>
    <vehicle id="860" depart="344.00">
        <route edges="-gneE0 gneE1 gneE4 gneE9"/>
    </vehicle>
    <vehicle id="862" depart="344.80">
        <route edges="-gneE11 -gneE9"/>
    </vehicle>
    <vehicle id="871" depart="348.40">
        <route edges="-gneE1 gneE3 gneE6"/>
    </vehicle>
    <vehicle id="873" depart="349.20">
        <route edges="-gneE16 -gneE12 -gneE9 -gneE4 -gneE1"/>
    </vehicle>
    <vehicle id="877" depart="350.80">
        <route edges="-gneE3 gneE1 gneE4 gneE9 gneE10"/>
    </vehicle>
    <vehicle id="885" depart="354.00">
        <route edges="-gneE9 -gneE4"/>
    </vehicle>
    <vehicle id="891" depart="356.40">
        <route edges="gneE2"/>
    </vehicle>
    <vehicle id="894" depart="357.60">
        <route edges="-gneE6 -gneE3 gneE1 gneE4 gneE9 gneE10"/>
    </vehicle>
    <vehicle id="896" depart="358.40">
        <route edges="-gneE4 -gneE1"/>
    </vehicle>
    <vehicle id="900" depart="360.00">
        <route edges="-gneE12"/>
    </vehicle>
    <vehicle id="902" depart="360.80">
        <route edges="gneE3 gneE6"/>
    </vehicle>
    <vehicle id="914" depart="365.60">
        <route edges="-gneE16 -gneE12 -gneE9 -gneE4 -gneE1 gneE3 gneE6"/>
    </vehicle>
    <vehicle id="919" depart="367.60">
        <route edges="-gneE2"/>
    </vehicle>
    <vehicle id="923" depart="369.20">
        <route edges="-gneE0 gneE1 gneE4 gneE9 gneE11"/>
    </vehicle>
    <vehicle id="926" depart="370.40">
        <route edges="-gneE11 -gneE9 -gneE4 -gneE1 gneE2"/>
    </vehicle>
    <vehicle id="927" depart="370.80">
        <route edges="-gneE16 -gneE12 gneE10 gneE13"/>
    </vehicle>
    <vehicle id="930" depart="372.00">
        <route edges="gneE1 gneE4 gneE9 gneE11 gneE14"/>
    </vehicle>
    <vehicle id="934" depart="373.60">
        <route edges="-gneE16 -gneE12 -gneE9 -gneE4 -gneE1 gneE2"/>
    </vehicle>
    <vehicle id="941" depart="376.40">
        <route edges="gneE10 gneE13"/>
    </vehicle>
    <vehicle id="942" depart="376.80">
        <route edges="-gneE12 -gneE9 -gneE4 -gneE1"/>
    </vehicle>
    <vehicle id="943" depart="377.20">
        <route edges="gneE12 gneE16"/>
    </vehicle>
    <vehicle id="948" depart="379.20">
        <route edges="-gneE4 -gneE1 gneE3"/>
    </vehicle>
    <vehicle id="949" depart="379.60">
        <route edges="-gneE14 -gneE11 -gneE9 -gneE4"/>
    </vehicle>
    <vehicle id="951" depart="380.40">
        <route edges="-gneE12 -gneE9"/>
    </vehicle>
    <vehicle id="955" depart="382.00">
        <route edges="-gneE11 -gneE9 -gneE4 -gneE1 gneE2"/>
    </vehicle>
    <vehicle id="958" depart="383.20">
        <route edges="-gneE11 gneE12 gneE16"/>
    </vehicle>
    <vehicle id="961" depart="384.40">
        <route edges="gneE2 gneE7"/>
    </vehicle>
    <vehicle id="971" depart="388.40">
        <route edges="-gneE3 gneE1"/>
    </vehicle>
    <vehicle id="980" depart="392.00">
        <route edges="-gneE5 -gneE0 gneE2"/>
    </vehicle>
    <vehicle id="983" depart="393.20">
        <route edges="-gneE14 -gneE11 -gneE9 -gneE4 -gneE1 gneE2"/>
    </vehicle>
    <vehicle id="985" depart="394.00">
        <route edges="-gneE6 -gneE3 gneE1"/>
    </vehicle>
    <vehicle id="986" depart="394.40">
        <route edges="-gneE16 -gneE12 gneE10"/>
    </vehicle>
    <vehicle id="987" depart="394.80">
        <route edges="-gneE7 -gneE2 gneE0 gneE5"/>
    </vehicle>
    <vehicle id="991" depart="396.40">
        <route edges="-gneE4 -gneE1 gneE2"/>
    </vehicle>
    <vehicle id="994" depart="397.60">
        <route edges="-gneE0 gneE1"/>
    </vehicle>
    <vehicle id="998" depart="399.20">
        <route edges="-gneE14 -gneE11"/>
    </vehicle>
    <vehicle id="1001" depart="400.40">
        <route edges="-gneE16 -gneE12 -gneE9 -gneE4 -gneE1 gneE2"/>
    </vehicle>
    <vehicle id="1004" depart="401.60">
        <route edges="gneE9 gneE11 gneE14"/>
    </vehicle>
    <vehicle id="1007" depart="402.80">
        <route edges="-gneE7 -gneE2 gneE3"/>
    </vehicle>
    <vehicle id="1010" depart="404.00">
        <route edges="-gneE14 -gneE11 -gneE9 -gneE4 -gneE1 gneE2 gneE7"/>
    </vehicle>
    <vehicle id="1022" depart="408.80">
        <route edges="-gneE3 gneE1 gneE4 gneE9 gneE11 gneE14"/>
    </vehicle>
    <vehicle id="1028" depart="411.20">
        <route edges="-gneE4"/>
    </vehicle>
    <vehicle id="1029" depart="411.60">
        <route edges="-gneE7 -gneE2 gneE0"/>
    </vehicle>
    <vehicle id="1030" depart="412.00">
        <route edges="gneE2"/>