<?xml version="1.0" encoding="UTF-8"?>

<!-- generated on 2021-09-29 19:30:54 by Eclipse SUMO duarouter Version 1.9.2
<configuration xmlns:xsi="http://www.w3.org/2001/XMLSchema-instance" xsi:noNamespaceSchemaLocation="http://sumo.dlr.de/xsd/duarouterConfiguration.xsd">

    <input>
        <net-file value="/home/sonic/Desktop/nets/case03/intersection.net.xml"/>
        <route-files value="trips.trips.xml"/>
    </input>

    <output>
        <output-file value="intersection_random43.rou.xml"/>
        <alternatives-output value="intersection_random43.rou.alt.xml"/>
    </output>

    <time>
        <begin value="0"/>
        <end value="3600.0"/>
    </time>

    <report>
        <no-warnings value="true"/>
        <ignore-errors value="true"/>
        <no-step-log value="true"/>
    </report>

</configuration>
-->

<routes xmlns:xsi="http://www.w3.org/2001/XMLSchema-instance" xsi:noNamespaceSchemaLocation="http://sumo.dlr.de/xsd/routes_file.xsd">
    <vehicle id="2" depart="0.80">
        <route edges="-gneE4 -gneE1 gneE2"/>
    </vehicle>
    <vehicle id="5" depart="2.00">
        <route edges="gneE9 gneE11"/>
    </vehicle>
    <vehicle id="9" depart="3.60">
        <route edges="gneE1 gneE4 gneE9 gneE10"/>
    </vehicle>
    <vehicle id="12" depart="4.80">
        <route edges="-gneE2"/>
    </vehicle>
    <vehicle id="15" depart="6.00">
        <route edges="-gneE12"/>
    </vehicle>
    <vehicle id="20" depart="8.00">
        <route edges="-gneE13 -gneE10"/>
    </vehicle>
    <vehicle id="21" depart="8.40">
        <route edges="-gneE4 -gneE1 gneE3"/>
    </vehicle>
    <vehicle id="23" depart="9.20">
        <route edges="gneE4 gneE9 gneE11 gneE14"/>
    </vehicle>
    <vehicle id="25" depart="10.00">
        <route edges="-gneE14 -gneE11 -gneE9 -gneE4"/>
    </vehicle>
    <vehicle id="28" depart="11.20">
        <route edges="-gneE3 gneE1 gneE4"/>
    </vehicle>
    <vehicle id="30" depart="12.00">
        <route edges="-gneE16 -gneE12 -gneE9 -gneE4"/>
    </vehicle>
    <vehicle id="31" depart="12.40">
        <route edges="-gneE12"/>
    </vehicle>
    <vehicle id="36" depart="14.40">
        <route edges="gneE1"/>
    </vehicle>
    <vehicle id="39" depart="15.60">
        <route edges="-gneE11 -gneE9 -gneE4 -gneE1 gneE3"/>
    </vehicle>
    <vehicle id="40" depart="16.00">
        <route edges="-gneE11 -gneE9 -gneE4 -gneE1 gneE3"/>
    </vehicle>
    <vehicle id="47" depart="18.80">
        <route edges="-gneE12 -gneE9 -gneE4 -gneE1 gneE2"/>
    </vehicle>
    <vehicle id="51" depart="20.40">
        <route edges="-gneE12 gneE10"/>
    </vehicle>
    <vehicle id="54" depart="21.60">
        <route edges="-gneE0 gneE1 gneE4 gneE9 gneE10"/>
    </vehicle>
    <vehicle id="55" depart="22.00">
        <route edges="-gneE1 gneE3 gneE6"/>
    </vehicle>
    <vehicle id="59" depart="23.60">
        <route edges="-gneE9 -gneE4 -gneE1 gneE2 gneE7"/>
    </vehicle>
    <vehicle id="62" depart="24.80">
        <route edges="gneE11 gneE14"/>
    </vehicle>
    <vehicle id="63" depart="25.20">
        <route edges="-gneE6 -gneE3 gneE1"/>
    </vehicle>
    <vehicle id="69" depart="27.60">
        <route edges="-gneE3 gneE0 gneE5"/>
    </vehicle>
    <vehicle id="79" depart="31.60">
        <route edges="gneE9"/>
    </vehicle>
    <vehicle id="90" depart="36.00">
        <route edges="-gneE9 -gneE4 -gneE1 gneE3"/>
    </vehicle>
    <vehicle id="94" depart="37.60">
        <route edges="-gneE3 gneE1 gneE4 gneE9 gneE11 gneE14"/>
    </vehicle>
    <vehicle id="99" depart="39.60">
        <route edges="-gneE12 -gneE9 -gneE4 -gneE1 gneE2 gneE7"/>
    </vehicle>
    <vehicle id="102" depart="40.80">
        <route edges="-gneE11 -gneE9 -gneE4 -gneE1 gneE2 gneE7"/>
    </vehicle>
    <vehicle id="104" depart="41.60">
        <route edges="-gneE16 -gneE12"/>
    </vehicle>
    <vehicle id="107" depart="42.80">
        <route edges="-gneE16 -gneE12 -gneE9 -gneE4 -gneE1 gneE3 gneE6"/>
    </vehicle>
    <vehicle id="110" depart="44.00">
        <route edges="gneE9 gneE10"/>
    </vehicle>
    <vehicle id="112" depart="44.80">
        <route edges="-gneE2 gneE3"/>
    </vehicle>
    <vehicle id="117" depart="46.80">
        <route edges="-gneE3 gneE1 gneE4"/>
    </vehicle>
    <vehicle id="121" depart="48.40">
        <route edges="gneE4 gneE9 gneE11"/>
    </vehicle>
    <vehicle id="124" depart="49.60">
        <route edges="-gneE12 gneE10"/>
    </vehicle>
    <vehicle id="126" depart="50.40">
        <route edges="-gneE5 -gneE0 gneE1"/>
    </vehicle>
    <vehicle id="127" depart="50.80">
        <route edges="-gneE0 gneE1 gneE4 gneE9 gneE11"/>
    </vehicle>
    <vehicle id="129" depart="51.60">
        <route edges="-gneE7 -gneE2"/>
    </vehicle>
    <vehicle id="133" depart="53.20">
        <route edges="gneE10 gneE13"/>
    </vehicle>
    <vehicle id="135" depart="54.00">
        <route edges="-gneE0 gneE1 gneE4 gneE9 gneE11"/>
    </vehicle>
    <vehicle id="137" depart="54.80">
        <route edges="-gneE12 -gneE9 -gneE4 -gneE1 gneE3"/>
    </vehicle>
    <vehicle id="139" depart="55.60">
        <route edges="-gneE3 gneE1 gneE4"/>
    </vehicle>
    <vehicle id="140" depart="56.00">
        <route edges="-gneE12"/>
    </vehicle>
    <vehicle id="141" depart="56.40">
        <route edges="-gneE13 -gneE10"/>
    </vehicle>
    <vehicle id="145" depart="58.00">
        <route edges="-gneE11 gneE12 gneE16"/>
    </vehicle>
    <vehicle id="148" depart="59.20">
        <route edges="-gneE12 -gneE9 -gneE4 -gneE1 gneE2"/>
    </vehicle>
    <vehicle id="150" depart="60.00">
        <route edges="-gneE9 -gneE4 -gneE1 gneE2 gneE7"/>
    </vehicle>
    <vehicle id="155" depart="62.00">
        <route edges="-gneE3 gneE1 gneE4 gneE9 gneE11"/>
    </vehicle>
    <vehicle id="161" depart="64.40">
        <route edges="gneE4"/>
    </vehicle>
    <vehicle id="163" depart="65.20">
        <route edges="-gneE12 -gneE9 -gneE4 -gneE1"/>
    </vehicle>
    <vehicle id="168" depart="67.20">
        <route edges="gneE4"/>
    </vehicle>
    <vehicle id="176" depart="70.40">
        <route edges="-gneE14 -gneE11 -gneE9 -gneE4 -gneE1 gneE3"/>
    </vehicle>
    <vehicle id="184" depart="73.60">
        <route edges="gneE1 gneE4 gneE9 gneE11"/>
    </vehicle>
    <vehicle id="190" depart="76.00">
        <route edges="-gneE7 -gneE2 gneE0 gneE5"/>
    </vehicle>
    <vehicle id="191" depart="76.40">
        <route edges="-gneE9"/>
    </vehicle>
    <vehicle id="194" depart="77.60">
        <route edges="gneE9 gneE10 gneE13"/>
    </vehicle>
    <vehicle id="197" depart="78.80">
        <route edges="-gneE9"/>
    </vehicle>
    <vehicle id="206" depart="82.40">
        <route edges="-gneE5 -gneE0 gneE1"/>
    </vehicle>
    <vehicle id="213" depart="85.20">
        <route edges="-gneE14 -gneE11 -gneE9 -gneE4"/>
    </vehicle>
    <vehicle id="215" depart="86.00">
        <route edges="-gneE4 -gneE1 gneE3"/>
    </vehicle>
    <vehicle id="222" depart="88.80">
        <route edges="-gneE11 -gneE9 -gneE4 -gneE1 gneE3"/>
    </vehicle>
    <vehicle id="224" depart="89.60">
        <route edges="-gneE12 -gneE9 -gneE4 -gneE1"/>
    </vehicle>
    <vehicle id="227" depart="90.80">
        <route edges="-gneE7 -gneE2 gneE3"/>
    </vehicle>
    <vehicle id="228" depart="91.20">
        <route edges="-gneE5 -gneE0 gneE2"/>
    </vehicle>
    <vehicle id="238" depart="95.20">
        <route edges="gneE1 gneE4 gneE9 gneE11"/>
    </vehicle>
    <vehicle id="241" depart="96.40">
        <route edges="-gneE5 -gneE0 gneE1 gneE4 gneE9 gneE11"/>
    </vehicle>
    <vehicle id="246" depart="98.40">
        <route edges="-gneE0"/>
    </vehicle>
    <vehicle id="247" depart="98.80">
        <route edges="-gneE14 -gneE11 -gneE9"/>
    </vehicle>
    <vehicle id="249" depart="99.60">
        <route edges="-gneE14 -gneE11 -gneE9 -gneE4 -gneE1 gneE2"/>
    </vehicle>
    <vehicle id="250" depart="100.00">
        <route edges="-gneE10 gneE12"/>
    </vehicle>
    <vehicle id="258" depart="103.20">
        <route edges="-gneE9 -gneE4 -gneE1 gneE3 gneE6"/>
    </vehicle>
    <vehicle id="267" depart="106.80">
        <route edges="-gneE0 gneE1"/>
    </vehicle>
    <vehicle id="271" depart="108.40">
        <route edges="-gneE3 gneE0"/>
    </vehicle>
    <vehicle id="277" depart="110.80">
        <route edges="-gneE10"/>
    </vehicle>
    <vehicle id="285" depart="114.00">
        <route edges="gneE9 gneE10"/>
    </vehicle>
    <vehicle id="286" depart="114.40">
        <route edges="-gneE9 -gneE4 -gneE1 gneE3"/>
    </vehicle>
    <vehicle id="287" depart="114.80">
        <route edges="-gneE1"/>
    </vehicle>
    <vehicle id="295" depart="118.00">
        <route edges="-gneE11 -gneE9 -gneE4 -gneE1 gneE2"/>
    </vehicle>
    <vehicle id="303" depart="121.20">
        <route edges="-gneE6 -gneE3 gneE1 gneE4 gneE9 gneE10 gneE13"/>
    </vehicle>
    <vehicle id="304" depart="121.60">
        <route edges="-gneE5 -gneE0 gneE1 gneE4 gneE9 gneE10 gneE13"/>
    </vehicle>
    <vehicle id="305" depart="122.00">
        <route edges="-gneE3 gneE0 gneE5"/>
    </vehicle>
    <vehicle id="311" depart="124.40">
        <route edges="gneE1 gneE4 gneE9 gneE11 gneE14"/>
    </vehicle>
    <vehicle id="312" depart="124.80">
        <route edges="gneE10 gneE13"/>
    </vehicle>
    <vehicle id="316" depart="126.40">
        <route edges="-gneE5 -gneE0 gneE1 gneE4 gneE9"/>
    </vehicle>
    <vehicle id="319" depart="127.60">
        <route edges="gneE1 gneE4 gneE9 gneE10"/>
    </vehicle>
    <vehicle id="322" depart="128.80">
        <route edges="gneE4 gneE9 gneE11"/>
    </vehicle>
    <vehicle id="327" depart="130.80">
        <route edges="-gneE9 -gneE4"/>
    </vehicle>
    <vehicle id="331" depart="132.40">
        <route edges="-gneE9 -gneE4 -gneE1"/>
    </vehicle>
    <vehicle id="339" depart="135.60">
        <route edges="-gneE14 -gneE11 -gneE9 -gneE4 -gneE1"/>
    </vehicle>
    <vehicle id="342" depart="136.80">
        <route edges="-gneE7 -gneE2 gneE3"/>
    </vehicle>
    <vehicle id="343" depart="137.20">
        <route edges="-gneE11 -gneE9 -gneE4 -gneE1"/>
    </vehicle>
    <vehicle id="344" depart="137.60">
        <route edges="gneE11 gneE14"/>
    </vehicle>
    <vehicle id="347" depart="138.80">
        <route edges="-gneE14 -gneE11"/>
    </vehicle>
    <vehicle id="352" depart="140.80">
        <route edges="gneE9"/>
    </vehicle>
    <vehicle id="356" depart="142.40">
        <route edges="-gneE14 -gneE11 -gneE9 -gneE4 -gneE1 gneE2 gneE7"/>
    </vehicle>
    <vehicle id="363" depart="145.20">
        <route edges="-gneE6 -gneE3 gneE0"/>
    </vehicle>
    <vehicle id="365" depart="146.00">
        <route edges="gneE11 gneE14"/>
    </vehicle>
    <vehicle id="366" depart="146.40">
        <route edges="-gneE6 -gneE3 gneE1 gneE4"/>
    </vehicle>
    <vehicle id="375" depart="150.00">
        <route edges="-gneE3 gneE0 gneE5"/>
    </vehicle>
    <vehicle id="381" depart="152.40">
        <route edges="-gneE9"/>
    </vehicle>
    <vehicle id="382" depart="152.80">
        <route edges="-gneE5 -gneE0 gneE2 gneE7"/>
    </vehicle>
    <vehicle id="384" depart="153.60">
        <route edges="-gneE5 -gneE0 gneE1 gneE4 gneE9 gneE10"/>
    </vehicle>
    <vehicle id="387" depart="154.80">
        <route edges="-gneE9 -gneE4 -gneE1 gneE2"/>
    </vehicle>
    <vehicle id="390" depart="156.00">
        <route edges="gneE4 gneE9"/>
    </vehicle>
    <vehicle id="397" depart="158.80">
        <route edges="-gneE16 -gneE12 -gneE9 -gneE4 -gneE1"/>
    </vehicle>
    <vehicle id="401" depart="160.40">
        <route edges="gneE9"/>
    </vehicle>
    <vehicle id="411" depart="164.40">
        <route edges="-gneE6 -gneE3 gneE1 gneE4 gneE9 gneE10 gneE13"/>
    </vehicle>
    <vehicle id="412" depart="164.80">
        <route edges="-gneE2 gneE0 gneE5"/>
    </vehicle>
    <vehicle id="418" depart="167.20">
        <route edges="-gneE2 gneE0"/>
    </vehicle>
    <vehicle id="424" depart="169.60">
        <route edges="-gneE10 gneE12 gneE16"/>
    </vehicle>
    <vehicle id="427" depart="170.80">
        <route edges="gneE11 gneE14"/>
    </vehicle>
    <vehicle id="436" depart="174.40">
        <route edges="-gneE6 -gneE3 gneE1 gneE4"/>
    </vehicle>
    <vehicle id="439" depart="175.60">
        <route edges="gneE9 gneE11"/>
    </vehicle>
    <vehicle id="448" depart="179.20">
        <route edges="-gneE14 -gneE11 -gneE9 -gneE4 -gneE1 gneE3 gneE6"/>
    </vehicle>
    <vehicle id="450" depart="180.00">
        <route edges="gneE4 gneE9 gneE10 gneE13"/>
    </vehicle>
    <vehicle id="454" depart="181.60">
        <route edges="gneE1 gneE4 gneE9 gneE11"/>
    </vehicle>
    <vehicle id="458" depart="183.20">
        <route edges="-gneE14 -gneE11 -gneE9 -gneE4 -gneE1 gneE3"/>
    </vehicle>
    <vehicle id="460" depart="184.00">
        <route edges="-gneE1 gneE2 gneE7"/>
    </vehicle>
    <vehicle id="463" depart="185.20">
        <route edges="gneE11"/>
    </vehicle>
    <vehicle id="464" depart="185.60">
        <route edges="-gneE4 -gneE1 gneE2"/>
    </vehicle>
    <vehicle id="466" depart="186.40">
        <route edges="-gneE1 gneE3"/>
    </vehicle>
    <vehicle id="478" depart="191.20">
        <route edges="-gneE12 -gneE9 -gneE4 -gneE1 gneE2 gneE7"/>
    </vehicle>
    <vehicle id="488" depart="195.20">
        <route edges="-gneE13 -gneE10 gneE12 gneE16"/>
    </vehicle>
    <vehicle id="490" depart="196.00">
        <route edges="-gneE7 -gneE2 gneE0 gneE5"/>
    </vehicle>
    <vehicle id="491" depart="196.40">
        <route edges="-gneE2"/>
    </vehicle>
    <vehicle id="498" depart="199.20">
        <route edges="gneE11 gneE14"/>
    </vehicle>
    <vehicle id="500" depart="200.00">
        <route edges="gneE4 gneE9 gneE10"/>
    </vehicle>
    <vehicle id="501" depart="200.40">
        <route edges="-gneE3 gneE1 gneE4 gneE9"/>
    </vehicle>
    <vehicle id="502" depart="200.80">
        <route edges="-gneE6 -gneE3 gneE1 gneE4 gneE9 gneE10 gneE13"/>
    </vehicle>
    <vehicle id="504" depart="201.60">
        <route edges="-gneE5 -gneE0 gneE2 gneE7"/>
    </vehicle>
    <vehicle id="506" depart="202.40">
        <route edges="-gneE0 gneE1 gneE4"/>
    </vehicle>
    <vehicle id="509" depart="203.60">
        <route edges="-gneE9 -gneE4 -gneE1 gneE3"/>
    </vehicle>
    <vehicle id="512" depart="204.80">
        <route edges="-gneE3 gneE0 gneE5"/>
    </vehicle>
    <vehicle id="513" depart="205.20">
        <route edges="-gneE16 -gneE12 -gneE9"/>
    </vehicle>
    <vehicle id="514" depart="205.60">
        <route edges="gneE4 gneE9 gneE11 gneE14"/>
    </vehicle>
    <vehicle id="520" depart="208.00">
        <route edges="-gneE12 gneE10"/>
    </vehicle>
    <vehicle id="522" depart="208.80">
        <route edges="-gneE12 -gneE9 -gneE4 -gneE1 gneE2"/>
    </vehicle>
    <vehicle id="526" depart="210.40">
        <route edges="gneE1"/>
    </vehicle>
    <vehicle id="528" depart="211.20">
        <route edges="-gneE6 -gneE3 gneE1 gneE4 gneE9 gneE10 gneE13"/>
    </vehicle>
    <vehicle id="534" depart="213.60">
        <route edges="-gneE11"/>
    </vehicle>
    <vehicle id="536" depart="214.40">
        <route edges="-gneE5 -gneE0 gneE1 gneE4 gneE9 gneE11"/>
    </vehicle>
    <vehicle id="545" depart="218.00">
        <route edges="-gneE12 -gneE9 -gneE4"/>
    </vehicle>
    <vehicle id="547" depart="218.80">
        <route edges="-gneE14 -gneE11 -gneE9 -gneE4 -gneE1 gneE3 gneE6"/>
    </vehicle>
    <vehicle id="549" depart="219.60">
        <route edges="-gneE3 gneE1 gneE4"/>
    </vehicle>
    <vehicle id="558" depart="223.20">
        <route edges="-gneE12 -gneE9 -gneE4 -gneE1 gneE2 gneE7"/>
    </vehicle>
    <vehicle id="566" depart="226.40">
        <route edges="gneE1 gneE4 gneE9 gneE11 gneE14"/>
    </vehicle>
    <vehicle id="569" depart="227.60">
        <route edges="-gneE14 -gneE11"/>
    </vehicle>
    <vehicle id="576" depart="230.40">
        <route edges="-gneE2 gneE3 gneE6"/>
    </vehicle>
    <vehicle id="580" depart="232.00">
        <route edges="-gneE16 -gneE12 -gneE9 -gneE4 -gneE1 gneE2 gneE7"/>
    </vehicle>
    <vehicle id="586" depart="234.40">
        <route edges="-gneE10 gneE11 gneE14"/>
    </vehicle>
    <vehicle id="588" depart="235.20">
        <route edges="-gneE9 -gneE4 -gneE1 gneE3"/>
    </vehicle>
    <vehicle id="589" depart="235.60">
        <route edges="-gneE9 -gneE4 -gneE1 gneE3 gneE6"/>
    </vehicle>
    <vehicle id="590" depart="236.00">
        <route edges="-gneE11 gneE12 gneE16"/>
    </vehicle>
    <vehicle id="591" depart="236.40">
        <route edges="gneE4 gneE9 gneE11"/>
    </vehicle>
    <vehicle id="593" depart="237.20">
        <route edges="-gneE11 -gneE9"/>
    </vehicle>
    <vehicle id="597" depart="238.80">
        <route edges="gneE1 gneE4"/>
    </vehicle>
    <vehicle id="601" depart="240.40">
        <route edges="-gneE7 -gneE2 gneE0 gneE5"/>
    </vehicle>
    <vehicle id="603" depart="241.20">
        <route edges="-gneE6 -gneE3"/>
    </vehicle>
    <vehicle id="606" depart="242.40">
        <route edges="gneE9 gneE10 gneE13"/>
    </vehicle>
    <vehicle id="608" depart="243.20">
        <route edges="-gneE12 gneE10 gneE13"/>
    </vehicle>
    <vehicle id="612" depart="244.80">
        <route edges="-gneE1 gneE2 gneE7"/>
    </vehicle>
    <vehicle id="618" depart="247.20">
        <route edges="-gneE12 -gneE9 -gneE4 -gneE1 gneE2 gneE7"/>
    </vehicle>
    <vehicle id="619" depart="247.60">
        <route edges="-gneE6 -gneE3 gneE1 gneE4"/>
    </vehicle>
    <vehicle id="620" depart="248.00">
        <route edges="gneE1 gneE4 gneE9 gneE11"/>
    </vehicle>
    <vehicle id="623" depart="249.20">
        <route edges="-gneE11 -gneE9 -gneE4 -gneE1 gneE2 gneE7"/>
    </vehicle>
    <vehicle id="627" depart="250.80">
        <route edges="-gneE10 gneE12 gneE16"/>
    </vehicle>
    <vehicle id="628" depart="251.20">
        <route edges="-gneE12 -gneE9 -gneE4 -gneE1 gneE3"/>
    </vehicle>
    <vehicle id="632" depart="252.80">
        <route edges="-gneE16 -gneE12"/>
    </vehicle>
    <vehicle id="633" depart="253.20">
        <route edges="-gneE6 -gneE3"/>
    </vehicle>
    <vehicle id="634" depart="253.60">
        <route edges="-gneE3 gneE1 gneE4 gneE9 gneE11"/>
    </vehicle>
    <vehicle id="638" depart="255.20">
        <route edges="-gneE9 -gneE4 -gneE1 gneE2 gneE7"/>
    </vehicle>
    <vehicle id="639" depart="255.60">
        <route edges="-gneE14 -gneE11 -gneE9"/>
    </vehicle>
    <vehicle id="642" depart="256.80">
        <route edges="-gneE9 -gneE4 -gneE1 gneE3 gneE6"/>
    </vehicle>
    <vehicle id="643" depart="257.20">
        <route edges="-gneE6 -gneE3 gneE0"/>
    </vehicle>
    <vehicle id="646" depart="258.40">
        <route edges="-gneE6 -gneE3 gneE0"/>
    </vehicle>
    <vehicle id="660" depart="264.00">
        <route edges="-gneE6 -gneE3 gneE1 gneE4 gneE9 gneE10"/>
    </vehicle>
    <vehicle id="661" depart="264.40">
        <route edges="-gneE3"/>
    </vehicle>
    <vehicle id="662" depart="264.80">
        <route edges="-gneE16 -gneE12 -gneE9 -gneE4 -gneE1 gneE2 gneE7"/>
    </vehicle>
    <vehicle id="667" depart="266.80">
        <route edges="-gneE4 -gneE1 gneE3"/>
    </vehicle>
    <vehicle id="671" depart="268.40">
        <route edges="gneE1 gneE4 gneE9 gneE10 gneE13"/>
    </vehicle>
    <vehicle id="673" depart="269.20">
        <route edges="-gneE5 -gneE0"/>
    </vehicle>
    <vehicle id="682" depart="272.80">
        <route edges="-gneE16 -gneE12 -gneE9 -gneE4 -gneE1 gneE2 gneE7"/>
    </vehicle>
    <vehicle id="684" depart="273.60">
        <route edges="-gneE0 gneE1 gneE4 gneE9 gneE11 gneE14"/>
    </vehicle>
    <vehicle id="688" depart="275.20">
        <route edges="-gneE4 -gneE1 gneE2"/>
    </vehicle>
    <vehicle id="690" depart="276.00">
        <route edges="-gneE9 -gneE4 -gneE1 gneE2 gneE7"/>
    </vehicle>
    <vehicle id="697" depart="278.80">
        <route edges="-gneE6 -gneE3"/>
    </vehicle>
    <vehicle id="698" depart="279.20">
        <route edges="-gneE7 -gneE2"/>
    </vehicle>
    <vehicle id="700" depart="280.00">
        <route edges="-gneE0 gneE1 gneE4 gneE9 gneE10 gneE13"/>
    </vehicle>
    <vehicle id="703" depart="281.20">
        <route edges="-gneE4"/>
    </vehicle>
    <vehicle id="710" depart="284.00">
        <route edges="-gneE16 -gneE12 -gneE9"/>
    </vehicle>
    <vehicle id="712" depart="284.80">
        <route edges="-gneE12"/>
    </vehicle>
    <vehicle id="716" depart="286.40">
        <route edges="gneE0"/>
    </vehicle>
    <vehicle id="717" depart="286.80">
        <route edges="-gneE1 gneE2"/>
    </vehicle>
    <vehicle id="729" depart="291.60">
        <route edges="gneE10"/>
    </vehicle>
    <vehicle id="736" depart="294.40">
        <route edges="-gneE5 -gneE0 gneE1"/>
    </vehicle>
    <vehicle id="739" depart="295.60">
        <route edges="gneE4 gneE9 gneE11"/>
    </vehicle>
    <vehicle id="742" depart="296.80">
        <route edges="-gneE2 gneE3"/>
    </vehicle>
    <vehicle id="747" depart="298.80">
        <route edges="-gneE4"/>
    </vehicle>
    <vehicle id="754" depart="301.60">
        <route edges="-gneE16 -gneE12"/>
    </vehicle>
    <vehicle id="758" depart="303.20">
        <route edges="-gneE4 -gneE1 gneE2"/>
    </vehicle>
    <vehicle id="762" depart="304.80">
        <route edges="-gneE3 gneE1"/>
    </vehicle>
    <vehicle id="763" depart="305.20">
        <route edges="-gneE4 -gneE1"/>
    </vehicle>
    <vehicle id="766" depart="306.40">
        <route edges="gneE4 gneE9 gneE10 gneE13"/>
    </vehicle>
    <vehicle id="770" depart="308.00">
        <route edges="-gneE14 -gneE11 -gneE9 -gneE4 -gneE1 gneE2"/>
    </vehicle>
    <vehicle id="778" depart="311.20">
        <route edges="-gneE14 -gneE11 -gneE9"/>
    </vehicle>
    <vehicle id="779" depart="311.60">
        <route edges="-gneE2 gneE3 gneE6"/>
    </vehicle>
    <vehicle id="786" depart="314.40">
        <route edges="-gneE0 gneE2"/>
    </vehicle>
    <vehicle id="789" depart="315.60">
        <route edges="-gneE6 -gneE3"/>
    </vehicle>
    <vehicle id="794" depart="317.60">
        <route edges="-gneE12 -gneE9 -gneE4 -gneE1"/>
    </vehicle>
    <vehicle id="797" depart="318.80">
        <route edges="-gneE16 -gneE12 -gneE9 -gneE4"/>
    </vehicle>
    <vehicle id="799" depart="319.60">
        <route edges="gneE10"/>
    </vehicle>
    <vehicle id="802" depart="320.80">
        <route edges="-gneE14 -gneE11 -gneE9 -gneE4 -gneE1 gneE3"/>
    </vehicle>
    <vehicle id="804" depart="321.60">
        <route edges="gneE4 gneE9"/>
    </vehicle>
    <vehicle id="810" depart="324.00">
        <route edges="-gneE5 -gneE0"/>
    </vehicle>
    <vehicle id="812" depart="324.80">
        <route edges="-gneE13 -gneE10 gneE11 gneE14"/>
    </vehicle>
    <vehicle id="814" depart="325.60">
        <route edges="-gneE2 gneE3 gneE6"/>
    </vehicle>
    <vehicle id="815" depart="326.00">
        <route edges="-gneE16 -gneE12"/>
    </vehicle>
    <vehicle id="818" depart="327.20">
        <route edges="-gneE12 -gneE9 -gneE4 -gneE1 gneE3 gneE6"/>
    </vehicle>
    <vehicle id="820" depart="328.00">
        <route edges="-gneE2 gneE0"/>
    </vehicle>
    <vehicle id="827" depart="330.80">
        <route edges="-gneE9 -gneE4 -gneE1 gneE3 gneE6"/>
    </vehicle>
    <vehicle id="828" depart="331.20">
        <route edges="-gneE11"/>
    </vehicle>
    <vehicle id="831" depart="332.40">
        <route edges="-gneE5 -gneE0 gneE1 gneE4"/>
    </vehicle>
    <vehicle id="834" depart="333.60">
        <route edges="-gneE4 -gneE1 gneE3"/>
    </vehicle>
    <vehicle id="838" depart="335.20">
        <route edges="-gneE12 -gneE9 -gneE4 -gneE1 gneE2"/>
    </vehicle>
    <vehicle id="842" depart="336.80">
        <route edges="gneE1 gneE4 gneE9"/>
    </vehicle>
    <vehicle id="843" depart="337.20">
        <route edges="-gneE16 -gneE12 -gneE9 -gneE4 -gneE1 gneE3"/>
    </vehicle>
    <vehicle id="846" depart="338.40">
        <route edges="gneE3"/>
    </vehicle>
    <vehicle id="855" depart="342.00">
        <route edges="-gneE14 -gneE11 -gneE9 -gneE4 -gneE1 gneE3 gneE6"/>
    </vehicle>
    <vehicle id="862" depart="344.80">
        <route edges="gneE12"/>
    </vehicle>
    <vehicle id="869" depart="347.60">
        <route edges="-gneE11 -gneE9 -gneE4 -gneE1 gneE3 gneE6"/>
    </vehicle>
    <vehicle id="872" depart="348.80">
        <route edges="-gneE13 -gneE10"/>
    </vehicle>
    <vehicle id="873" depart="349.20">
        <route edges="-gneE14 -gneE11 gneE12 gneE16"/>
    </vehicle>
    <vehicle id="876" depart="350.40">
        <route edges="-gneE11 -gneE9 -gneE4 -gneE1 gneE2 gneE7"/>
    </vehicle>
    <vehicle id="880" depart="352.00">
        <route edges="-gneE11 gneE12 gneE16"/>
    </vehicle>
    <vehicle id="881" depart="352.40">
        <route edges="-gneE16 -gneE12 -gneE9 -gneE4 -gneE1 gneE2 gneE7"/>
    </vehicle>
    <vehicle id="884" depart="353.60">
        <route edges="-gneE14 -gneE11 gneE12 gneE16"/>
    </vehicle>
    <vehicle id="900" depart="360.00">
        <route edges="gneE9 gneE11 gneE14"/>
    </vehicle>
    <vehicle id="902" depart="360.80">
        <route edges="gneE1 gneE4 gneE9"/>
    </vehicle>
    <vehicle id="904" depart="361.60">
        <route edges="-gneE3 gneE1 gneE4 gneE9 gneE10"/>
    </vehicle>
    <vehicle id="912" depart="364.80">
        <route edges="-gneE3 gneE1"/>
    </vehicle>
    <vehicle id="914" depart="365.60">
        <route edges="-gneE4 -gneE1"/>
    </vehicle>
    <vehicle id="925" depart="370.00">
        <route edges="-gneE12 gneE10"/>
    </vehicle>
    <vehicle id="929" depart="371.60">
        <route edges="-gneE0 gneE1 gneE4 gneE9 gneE11 gneE14"/>
    </vehicle>
    <vehicle id="934" depart="373.60">
        <route edges="gneE4 gneE9 gneE10"/>
    </vehicle>
    <vehicle id="936" depart="374.40">
        <route edges="-gneE13 -gneE10 gneE12 gneE16"/>
    </vehicle>
    <vehicle id="937" depart="374.80">
        <route edges="-gneE4 -gneE1 gneE2 gneE7"/>
    </vehicle>
    <vehicle id="945" depart="378.00">
        <route edges="-gneE12 -gneE9 -gneE4 -gneE1 gneE3"/>
    </vehicle>
    <vehicle id="950" depart="380.00">
        <route edges="-gneE14 -gneE11 -gneE9 -gneE4 -gneE1 gneE2 gneE7"/>
    </vehicle>
    <vehicle id="952" depart="380.80">
        <route edges="-gneE9 -gneE4 -gneE1 gneE3 gneE6"/>
    </vehicle>
    <vehicle id="953" depart="381.20">
        <route edges="-gneE2"/>
    </vehicle>
    <vehicle id="967" depart="386.80">
        <route edges="gneE2"/>
    </vehicle>
    <vehicle id="971" depart="388.40">
        <route edges="-gneE7 -gneE2 gneE3"/>
    </vehicle>
    <vehicle id="973" depart="389.20">
        <route edges="-gneE10 gneE11 gneE14"/>
    </vehicle>
    <vehicle id="974" depart="389.60">
        <route edges="-gneE14 -gneE11"/>
    </vehicle>
    <vehicle id="977" depart="390.80">
        <route edges="-gneE6 -gneE3 gneE1 gneE4 gneE9 gneE11 gneE14"/>
    </vehicle>
    <vehicle id="978" depart="391.20">
        <route edges="-gneE3 gneE1 gneE4 gneE9"/>
    </vehicle>
    <vehicle id="979" depart="391.60">
        <route edges="-gneE4 -gneE1 gneE2"/>
    </vehicle>
    <vehicle id="983" depart="393.20">
        <route edges="-gneE11 -gneE9 -gneE4 -gneE1 gneE2 gneE7"/>
    </vehicle>
    <vehicle id="993" depart="397.20">
        <route edges="gneE11"/>
    </vehicle>
    <vehicle id="997" depart="398.80">
        <route edges="-gneE12 -gneE9 -gneE4"/>
    </vehicle>
    <vehicle id="1005" depart="402.00">
        <route edges="-gneE6 -gneE3 gneE1 gneE4 gneE9 gneE10 gneE13"/>
    </vehicle>
    <vehicle id="1011" depart="404.40">
        <route edges="-gneE4"/>
    </vehicle>
    <vehicle id="1014" depart="405.60">
        <route edges="-gneE12 gneE10 gneE13"/>
    </vehicle>
    <vehicle id="1023" depart="409.20">
        <route edges="gneE1 gneE4 gneE9 gneE10 gneE13"/>
    </vehicle>
    <vehicle id="1027" depart="410.80">
        <route edges="-gneE13 -gneE10 gneE11"/>
    </vehicle>
    <vehicle id="1028" depart="411.20">
        <route edges="gneE12"/>
    </vehicle>
    <vehicle id="1031" depart="412.40">
        <route edges="-gneE4"/>
    </vehicle>
    <vehicle id="1033" depart="413.20">
        <route edges="-gneE9 -gneE4 -gneE1 gneE2"/>
    </vehicle>
    <vehicle id="1045" depart="418.00">
        <route edges="-gneE16 -gneE12"/>
    </vehicle>
    <vehicle id="1052" depart="420.80">
        <route edges="-gneE16 -gneE12 -gneE9 -gneE4 -gneE1 gneE2"/>
    </vehicle>
    <vehicle id="1055" depart="422.00">
        <route edges="-gneE12 -gneE9 -gneE4 -gneE1 gneE2 gneE7"/>
    </vehicle>
    <vehicle id="1060" depart="424.00">
        <route edges="-gneE7 -gneE2 gneE3"/>
    </vehicle>
    <vehicle id="1062" depart="424.80">
        <route edges="-gneE12 -gneE9 -gneE4 -gneE1 gneE3"/>
    </vehicle>
    <vehicle id="1063" depart="425.20">
        <route edges="-gneE12 -gneE9 -gneE4 -gneE1"/>
    </vehicle>
    <vehicle id="1067" depart="426.80">
        <route edges="-gneE10 gneE12"/>
    </vehicle>
    <vehicle id="1070" depart="428.00">
        <route edges="-gneE7 -gneE2 gneE3 gneE6"/>
    </vehicle>
    <vehicle id="1073" depart="429.20">
        <route edges="-gneE6 -gneE3 gneE1 gneE4 gneE9 gneE11"/>
    </vehicle>
    <vehicle id="1076" depart="430.40">
        <route edges="-gneE14 -gneE11 -gneE9 -gneE4"/>
    </vehicle>
    <vehicle id="1087" depart="434.80">
        <route edges="gneE1"/>
    </vehicle>
    <vehicle id="1096" depart="438.40">
        <route edges="gneE1 gneE4 gneE9 gneE10 gneE13"/>
    </vehicle>
    <vehicle id="1097" depart="438.80">
        <route edges="gneE1 gneE4 gneE9 gneE10 gneE13"/>
    </vehicle>
    <vehicle id="1100" depart="440.00">
        <route edges="-gneE4 -gneE1 gneE2"/>
    </vehicle>
    <vehicle id="1107" depart="442.80">
        <route edges="-gneE7 -gneE2"/>
    </vehicle>
    <vehicle id="1110" depart="444.00">