<?xml version="1.0" encoding="UTF-8"?>

<!-- generated on 2021-09-29 19:30:43 by Eclipse SUMO duarouter Version 1.9.2
<configuration xmlns:xsi="http://www.w3.org/2001/XMLSchema-instance" xsi:noNamespaceSchemaLocation="http://sumo.dlr.de/xsd/duarouterConfiguration.xsd">

    <input>
        <net-file value="/home/sonic/Desktop/nets/case03/intersection.net.xml"/>
        <route-files value="trips.trips.xml"/>
    </input>

    <output>
        <output-file value="intersection_random22.rou.xml"/>
        <alternatives-output value="intersection_random22.rou.alt.xml"/>
    </output>

    <time>
        <begin value="0"/>
        <end value="3600.0"/>
    </time>

    <report>
        <no-warnings value="true"/>
        <ignore-errors value="true"/>
        <no-step-log value="true"/>
    </report>

</configuration>
-->

<routes xmlns:xsi="http://www.w3.org/2001/XMLSchema-instance" xsi:noNamespaceSchemaLocation="http://sumo.dlr.de/xsd/routes_file.xsd">
    <vehicle id="1" depart="0.40">
        <route edges="gneE12 gneE16"/>
    </vehicle>
    <vehicle id="9" depart="3.60">
        <route edges="-gneE3"/>
    </vehicle>
    <vehicle id="10" depart="4.00">
        <route edges="-gneE7 -gneE2 gneE3"/>
    </vehicle>
    <vehicle id="14" depart="5.60">
        <route edges="-gneE9"/>
    </vehicle>
    <vehicle id="18" depart="7.20">
        <route edges="-gneE1 gneE3"/>
    </vehicle>
    <vehicle id="23" depart="9.20">
        <route edges="-gneE14 -gneE11 -gneE9 -gneE4 -gneE1"/>
    </vehicle>
    <vehicle id="31" depart="12.40">
        <route edges="-gneE12 -gneE9 -gneE4 -gneE1 gneE3"/>
    </vehicle>
    <vehicle id="33" depart="13.20">
        <route edges="-gneE16 -gneE12 -gneE9 -gneE4 -gneE1 gneE2 gneE7"/>
    </vehicle>
    <vehicle id="38" depart="15.20">
        <route edges="-gneE9 -gneE4"/>
    </vehicle>
    <vehicle id="40" depart="16.00">
        <route edges="-gneE6 -gneE3 gneE1 gneE4 gneE9 gneE10 gneE13"/>
    </vehicle>
    <vehicle id="44" depart="17.60">
        <route edges="-gneE11 -gneE9"/>
    </vehicle>
    <vehicle id="47" depart="18.80">
        <route edges="-gneE5 -gneE0 gneE1 gneE4 gneE9 gneE10"/>
    </vehicle>
    <vehicle id="51" depart="20.40">
        <route edges="-gneE1 gneE2"/>
    </vehicle>
    <vehicle id="52" depart="20.80">
        <route edges="-gneE0 gneE1 gneE4 gneE9"/>
    </vehicle>
    <vehicle id="57" depart="22.80">
        <route edges="-gneE9"/>
    </vehicle>
    <vehicle id="60" depart="24.00">
        <route edges="-gneE4 -gneE1"/>
    </vehicle>
    <vehicle id="63" depart="25.20">
        <route edges="-gneE11 gneE12 gneE16"/>
    </vehicle>
    <vehicle id="68" depart="27.20">
        <route edges="-gneE11 -gneE9 -gneE4 -gneE1 gneE3"/>
    </vehicle>
    <vehicle id="73" depart="29.20">
        <route edges="gneE9 gneE10 gneE13"/>
    </vehicle>
    <vehicle id="80" depart="32.00">
        <route edges="-gneE10 gneE12 gneE16"/>
    </vehicle>
    <vehicle id="83" depart="33.20">
        <route edges="-gneE11"/>
    </vehicle>
    <vehicle id="84" depart="33.60">
        <route edges="-gneE16 -gneE12 -gneE9 -gneE4 -gneE1 gneE2 gneE7"/>
    </vehicle>
    <vehicle id="85" depart="34.00">
        <route edges="-gneE6 -gneE3"/>
    </vehicle>
    <vehicle id="87" depart="34.80">
        <route edges="-gneE13 -gneE10 gneE11"/>
    </vehicle>
    <vehicle id="88" depart="35.20">
        <route edges="-gneE11 -gneE9 -gneE4 -gneE1 gneE3"/>
    </vehicle>
    <vehicle id="90" depart="36.00">
        <route edges="-gneE7 -gneE2 gneE3"/>
    </vehicle>
    <vehicle id="91" depart="36.40">
        <route edges="-gneE12 -gneE9 -gneE4 -gneE1"/>
    </vehicle>
    <vehicle id="97" depart="38.80">
        <route edges="-gneE6 -gneE3"/>
    </vehicle>
    <vehicle id="106" depart="42.40">
        <route edges="-gneE0 gneE1 gneE4 gneE9 gneE10 gneE13"/>
    </vehicle>
    <vehicle id="109" depart="43.60">
        <route edges="-gneE5 -gneE0 gneE1 gneE4 gneE9 gneE11"/>
    </vehicle>
    <vehicle id="110" depart="44.00">
        <route edges="-gneE0 gneE1 gneE4 gneE9 gneE11"/>
    </vehicle>
    <vehicle id="114" depart="45.60">
        <route edges="-gneE0 gneE1 gneE4 gneE9"/>
    </vehicle>
    <vehicle id="123" depart="49.20">
        <route edges="-gneE13 -gneE10 gneE12 gneE16"/>
    </vehicle>
    <vehicle id="125" depart="50.00">
        <route edges="-gneE7 -gneE2 gneE3"/>
    </vehicle>
    <vehicle id="131" depart="52.40">
        <route edges="gneE10"/>
    </vehicle>
    <vehicle id="134" depart="53.60">
        <route edges="-gneE9 -gneE4"/>
    </vehicle>
    <vehicle id="135" depart="54.00">
        <route edges="-gneE4 -gneE1 gneE2 gneE7"/>
    </vehicle>
    <vehicle id="138" depart="55.20">
        <route edges="gneE3"/>
    </vehicle>
    <vehicle id="140" depart="56.00">
        <route edges="-gneE13 -gneE10 gneE11"/>
    </vehicle>
    <vehicle id="141" depart="56.40">
        <route edges="-gneE3 gneE1 gneE4 gneE9 gneE10"/>
    </vehicle>
    <vehicle id="145" depart="58.00">
        <route edges="-gneE7 -gneE2 gneE0"/>
    </vehicle>
    <vehicle id="146" depart="58.40">
        <route edges="-gneE6 -gneE3 gneE0 gneE5"/>
    </vehicle>
    <vehicle id="148" depart="59.20">
        <route edges="-gneE11 gneE12"/>
    </vehicle>
    <vehicle id="156" depart="62.40">
        <route edges="-gneE14 -gneE11 -gneE9 -gneE4 -gneE1 gneE2 gneE7"/>
    </vehicle>
    <vehicle id="158" depart="63.20">
        <route edges="-gneE2 gneE3"/>
    </vehicle>
    <vehicle id="162" depart="64.80">
        <route edges="-gneE11 gneE12"/>
    </vehicle>
    <vehicle id="163" depart="65.20">
        <route edges="gneE9 gneE10"/>
    </vehicle>
    <vehicle id="167" depart="66.80">
        <route edges="-gneE9"/>
    </vehicle>
    <vehicle id="168" depart="67.20">
        <route edges="gneE9 gneE11 gneE14"/>
    </vehicle>
    <vehicle id="171" depart="68.40">
        <route edges="-gneE16 -gneE12"/>
    </vehicle>
    <vehicle id="172" depart="68.80">
        <route edges="-gneE13 -gneE10 gneE11"/>
    </vehicle>
    <vehicle id="175" depart="70.00">
        <route edges="gneE4"/>
    </vehicle>
    <vehicle id="179" depart="71.60">
        <route edges="-gneE12 gneE10"/>
    </vehicle>
    <vehicle id="180" depart="72.00">
        <route edges="-gneE3 gneE1 gneE4 gneE9 gneE11"/>
    </vehicle>
    <vehicle id="186" depart="74.40">
        <route edges="-gneE2 gneE3"/>
    </vehicle>
    <vehicle id="190" depart="76.00">
        <route edges="-gneE2 gneE3"/>
    </vehicle>
    <vehicle id="191" depart="76.40">
        <route edges="-gneE9 -gneE4 -gneE1 gneE2"/>
    </vehicle>
    <vehicle id="196" depart="78.40">
        <route edges="-gneE10 gneE12"/>
    </vehicle>
    <vehicle id="199" depart="79.60">
        <route edges="gneE1 gneE4 gneE9"/>
    </vehicle>
    <vehicle id="202" depart="80.80">
        <route edges="-gneE14 -gneE11 gneE12"/>
    </vehicle>
    <vehicle id="208" depart="83.20">
        <route edges="gneE1 gneE4 gneE9 gneE11 gneE14"/>
    </vehicle>
    <vehicle id="211" depart="84.40">
        <route edges="-gneE5 -gneE0 gneE1"/>
    </vehicle>
    <vehicle id="215" depart="86.00">
        <route edges="-gneE5 -gneE0 gneE1 gneE4 gneE9 gneE11"/>
    </vehicle>
    <vehicle id="216" depart="86.40">
        <route edges="-gneE13 -gneE10 gneE12 gneE16"/>
    </vehicle>
    <vehicle id="217" depart="86.80">
        <route edges="-gneE1 gneE3"/>
    </vehicle>
    <vehicle id="218" depart="87.20">
        <route edges="gneE0 gneE5"/>
    </vehicle>
    <vehicle id="221" depart="88.40">
        <route edges="-gneE0 gneE1 gneE4 gneE9 gneE10 gneE13"/>
    </vehicle>
    <vehicle id="223" depart="89.20">
        <route edges="-gneE10 gneE12"/>
    </vehicle>
    <vehicle id="227" depart="90.80">
        <route edges="gneE1 gneE4"/>
    </vehicle>
    <vehicle id="234" depart="93.60">
        <route edges="-gneE4 -gneE1 gneE2"/>
    </vehicle>
    <vehicle id="239" depart="95.60">
        <route edges="-gneE6 -gneE3 gneE0"/>
    </vehicle>
    <vehicle id="244" depart="97.60">
        <route edges="-gneE7 -gneE2 gneE3 gneE6"/>
    </vehicle>
    <vehicle id="250" depart="100.00">
        <route edges="-gneE1 gneE2"/>
    </vehicle>
    <vehicle id="251" depart="100.40">
        <route edges="gneE4 gneE9"/>
    </vehicle>
    <vehicle id="257" depart="102.80">
        <route edges="-gneE4 -gneE1 gneE2 gneE7"/>
    </vehicle>
    <vehicle id="258" depart="103.20">
        <route edges="-gneE14 -gneE11 -gneE9 -gneE4 -gneE1 gneE3 gneE6"/>
    </vehicle>
    <vehicle id="260" depart="104.00">
        <route edges="gneE10 gneE13"/>
    </vehicle>
    <vehicle id="262" depart="104.80">
        <route edges="-gneE4 -gneE1 gneE2"/>
    </vehicle>
    <vehicle id="263" depart="105.20">
        <route edges="gneE9"/>
    </vehicle>
    <vehicle id="268" depart="107.20">
        <route edges="-gneE5 -gneE0 gneE1 gneE4 gneE9 gneE10 gneE13"/>
    </vehicle>
    <vehicle id="270" depart="108.00">
        <route edges="gneE9 gneE11 gneE14"/>
    </vehicle>
    <vehicle id="272" depart="108.80">
        <route edges="-gneE3 gneE1 gneE4 gneE9"/>
    </vehicle>
    <vehicle id="285" depart="114.00">
        <route edges="gneE9 gneE10 gneE13"/>
    </vehicle>
    <vehicle id="286" depart="114.40">
        <route edges="-gneE10 gneE11 gneE14"/>
    </vehicle>
    <vehicle id="288" depart="115.20">
        <route edges="gneE3 gneE6"/>
    </vehicle>
    <vehicle id="289" depart="115.60">
        <route edges="-gneE14 -gneE11 -gneE9 -gneE4 -gneE1 gneE3"/>
    </vehicle>
    <vehicle id="290" depart="116.00">
        <route edges="-gneE11 -gneE9 -gneE4"/>
    </vehicle>
    <vehicle id="309" depart="123.60">
        <route edges="gneE2"/>
    </vehicle>
    <vehicle id="310" depart="124.00">
        <route edges="-gneE2 gneE0"/>
    </vehicle>
    <vehicle id="314" depart="125.60">
        <route edges="-gneE11 -gneE9 -gneE4 -gneE1 gneE2 gneE7"/>
    </vehicle>
    <vehicle id="321" depart="128.40">
        <route edges="-gneE11 -gneE9 -gneE4 -gneE1 gneE3 gneE6"/>
    </vehicle>
    <vehicle id="325" depart="130.00">
        <route edges="-gneE12 -gneE9 -gneE4 -gneE1"/>
    </vehicle>
    <vehicle id="334" depart="133.60">
        <route edges="-gneE3 gneE1 gneE4 gneE9 gneE11"/>
    </vehicle>
    <vehicle id="335" depart="134.00">
        <route edges="-gneE10 gneE11 gneE14"/>
    </vehicle>
    <vehicle id="337" depart="134.80">
        <route edges="-gneE14 -gneE11 gneE12 gneE16"/>
    </vehicle>
    <vehicle id="348" depart="139.20">
        <route edges="-gneE4 -gneE1 gneE2 gneE7"/>
    </vehicle>
    <vehicle id="356" depart="142.40">
        <route edges="gneE10 gneE13"/>
    </vehicle>
    <vehicle id="367" depart="146.80">
        <route edges="-gneE5 -gneE0 gneE2"/>
    </vehicle>
    <vehicle id="373" depart="149.20">
        <route edges="gneE2 gneE7"/>
    </vehicle>
    <vehicle id="377" depart="150.80">
        <route edges="-gneE11 -gneE9 -gneE4 -gneE1 gneE3"/>
    </vehicle>
    <vehicle id="378" depart="151.20">
        <route edges="gneE9"/>
    </vehicle>
    <vehicle id="381" depart="152.40">
        <route edges="-gneE13 -gneE10 gneE12 gneE16"/>
    </vehicle>
    <vehicle id="382" depart="152.80">
        <route edges="-gneE14 -gneE11 gneE12 gneE16"/>
    </vehicle>
    <vehicle id="384" depart="153.60">
        <route edges="-gneE10 gneE12 gneE16"/>
    </vehicle>
    <vehicle id="389" depart="155.60">
        <route edges="gneE1 gneE4 gneE9 gneE11"/>
    </vehicle>
    <vehicle id="399" depart="159.60">
        <route edges="gneE4 gneE9 gneE11"/>
    </vehicle>
    <vehicle id="400" depart="160.00">
        <route edges="gneE1 gneE4 gneE9 gneE10 gneE13"/>
    </vehicle>
    <vehicle id="408" depart="163.20">
        <route edges="gneE2 gneE7"/>
    </vehicle>
    <vehicle id="409" depart="163.60">
        <route edges="-gneE7 -gneE2"/>
    </vehicle>
    <vehicle id="411" depart="164.40">
        <route edges="-gneE10"/>
    </vehicle>
    <vehicle id="415" depart="166.00">
        <route edges="-gneE0 gneE1 gneE4 gneE9 gneE10 gneE13"/>
    </vehicle>
    <vehicle id="416" depart="166.40">
        <route edges="-gneE5 -gneE0 gneE1 gneE4"/>
    </vehicle>
    <vehicle id="418" depart="167.20">
        <route edges="-gneE16 -gneE12 -gneE9 -gneE4 -gneE1 gneE3 gneE6"/>
    </vehicle>
    <vehicle id="419" depart="167.60">
        <route edges="-gneE14 -gneE11 -gneE9 -gneE4 -gneE1 gneE2 gneE7"/>
    </vehicle>
    <vehicle id="420" depart="168.00">
        <route edges="gneE4 gneE9 gneE11"/>
    </vehicle>
    <vehicle id="423" depart="169.20">
        <route edges="-gneE6 -gneE3"/>
    </vehicle>
    <vehicle id="424" depart="169.60">
        <route edges="-gneE9 -gneE4 -gneE1 gneE2 gneE7"/>
    </vehicle>
    <vehicle id="426" depart="170.40">
        <route edges="-gneE6 -gneE3 gneE1 gneE4 gneE9 gneE11"/>
    </vehicle>
    <vehicle id="427" depart="170.80">
        <route edges="-gneE1 gneE2"/>
    </vehicle>
    <vehicle id="429" depart="171.60">
        <route edges="gneE12 gneE16"/>
    </vehicle>
    <vehicle id="431" depart="172.40">
        <route edges="-gneE6 -gneE3 gneE0"/>
    </vehicle>
    <vehicle id="435" depart="174.00">
        <route edges="-gneE14 -gneE11 -gneE9"/>
    </vehicle>
    <vehicle id="436" depart="174.40">
        <route edges="-gneE13 -gneE10"/>
    </vehicle>
    <vehicle id="448" depart="179.20">
        <route edges="-gneE16 -gneE12 -gneE9 -gneE4 -gneE1 gneE3 gneE6"/>
    </vehicle>
    <vehicle id="455" depart="182.00">
        <route edges="-gneE14 -gneE11 gneE12"/>
    </vehicle>
    <vehicle id="456" depart="182.40">
        <route edges="-gneE13 -gneE10 gneE12 gneE16"/>
    </vehicle>
    <vehicle id="459" depart="183.60">
        <route edges="-gneE0 gneE1 gneE4 gneE9 gneE10"/>
    </vehicle>
    <vehicle id="470" depart="188.00">
        <route edges="-gneE12 -gneE9 -gneE4 -gneE1 gneE2"/>
    </vehicle>
    <vehicle id="473" depart="189.20">
        <route edges="gneE11 gneE14"/>
    </vehicle>
    <vehicle id="478" depart="191.20">
        <route edges="-gneE14 -gneE11"/>
    </vehicle>
    <vehicle id="481" depart="192.40">
        <route edges="-gneE9 -gneE4 -gneE1 gneE2"/>
    </vehicle>
    <vehicle id="484" depart="193.60">
        <route edges="-gneE10 gneE11"/>
    </vehicle>
    <vehicle id="486" depart="194.40">
        <route edges="-gneE7 -gneE2 gneE3 gneE6"/>
    </vehicle>
    <vehicle id="492" depart="196.80">
        <route edges="-gneE13 -gneE10"/>
    </vehicle>
    <vehicle id="501" depart="200.40">
        <route edges="-gneE0 gneE1 gneE4 gneE9 gneE10"/>
    </vehicle>
    <vehicle id="503" depart="201.20">
        <route edges="-gneE0 gneE1 gneE4 gneE9 gneE11"/>
    </vehicle>
    <vehicle id="505" depart="202.00">
        <route edges="-gneE16 -gneE12 -gneE9 -gneE4"/>
    </vehicle>
    <vehicle id="513" depart="205.20">
        <route edges="-gneE14 -gneE11 -gneE9"/>
    </vehicle>
    <vehicle id="514" depart="205.60">
        <route edges="-gneE7 -gneE2 gneE0 gneE5"/>
    </vehicle>
    <vehicle id="517" depart="206.80">
        <route edges="-gneE7 -gneE2 gneE3"/>
    </vehicle>
    <vehicle id="520" depart="208.00">
        <route edges="-gneE2 gneE0"/>
    </vehicle>
    <vehicle id="529" depart="211.60">
        <route edges="-gneE12 -gneE9 -gneE4 -gneE1 gneE3 gneE6"/>
    </vehicle>
    <vehicle id="531" depart="212.40">
        <route edges="-gneE14 -gneE11 gneE12 gneE16"/>
    </vehicle>
    <vehicle id="532" depart="212.80">
        <route edges="gneE9 gneE11"/>
    </vehicle>
    <vehicle id="535" depart="214.00">
        <route edges="gneE1 gneE4 gneE9 gneE10 gneE13"/>
    </vehicle>
    <vehicle id="536" depart="214.40">
        <route edges="gneE9"/>
    </vehicle>
    <vehicle id="539" depart="215.60">
        <route edges="-gneE0 gneE2 gneE7"/>
    </vehicle>
    <vehicle id="540" depart="216.00">
        <route edges="-gneE6 -gneE3 gneE1 gneE4 gneE9"/>
    </vehicle>
    <vehicle id="543" depart="217.20">
        <route edges="-gneE14 -gneE11 -gneE9"/>
    </vehicle>
    <vehicle id="548" depart="219.20">
        <route edges="-gneE13 -gneE10 gneE12 gneE16"/>
    </vehicle>
    <vehicle id="550" depart="220.00">
        <route edges="-gneE4 -gneE1"/>
    </vehicle>
    <vehicle id="557" depart="222.80">
        <route edges="gneE3 gneE6"/>
    </vehicle>
    <vehicle id="583" depart="233.20">
        <route edges="gneE4"/>
    </vehicle>
    <vehicle id="584" depart="233.60">
        <route edges="-gneE0 gneE1 gneE4 gneE9 gneE11 gneE14"/>
    </vehicle>
    <vehicle id="587" depart="234.80">
        <route edges="gneE4 gneE9 gneE10"/>
    </vehicle>
    <vehicle id="588" depart="235.20">
        <route edges="-gneE12 -gneE9 -gneE4 -gneE1"/>
    </vehicle>
    <vehicle id="592" depart="236.80">
        <route edges="-gneE11 gneE12 gneE16"/>
    </vehicle>
    <vehicle id="595" depart="238.00">
        <route edges="gneE9 gneE11"/>
    </vehicle>
    <vehicle id="596" depart="238.40">
        <route edges="-gneE2 gneE0"/>
    </vehicle>
    <vehicle id="605" depart="242.00">
        <route edges="-gneE6 -gneE3 gneE0 gneE5"/>
    </vehicle>
    <vehicle id="606" depart="242.40">
        <route edges="-gneE16 -gneE12 -gneE9"/>
    </vehicle>
    <vehicle id="611" depart="244.40">
        <route edges="-gneE13 -gneE10 gneE11 gneE14"/>
    </vehicle>
    <vehicle id="612" depart="244.80">
        <route edges="-gneE16 -gneE12 -gneE9 -gneE4 -gneE1 gneE2 gneE7"/>
    </vehicle>
    <vehicle id="613" depart="245.20">
        <route edges="-gneE14 -gneE11 -gneE9 -gneE4 -gneE1 gneE3 gneE6"/>
    </vehicle>
    <vehicle id="615" depart="246.00">
        <route edges="-gneE3 gneE1 gneE4 gneE9 gneE10 gneE13"/>
    </vehicle>
    <vehicle id="617" depart="246.80">
        <route edges="-gneE0 gneE1"/>
    </vehicle>
    <vehicle id="621" depart="248.40">
        <route edges="gneE4 gneE9 gneE10 gneE13"/>
    </vehicle>
    <vehicle id="626" depart="250.40">
        <route edges="-gneE12 -gneE9 -gneE4 -gneE1"/>
    </vehicle>
    <vehicle id="629" depart="251.60">
        <route edges="-gneE3 gneE1 gneE4 gneE9 gneE10"/>
    </vehicle>
    <vehicle id="635" depart="254.00">
        <route edges="-gneE5 -gneE0 gneE1 gneE4 gneE9 gneE10 gneE13"/>
    </vehicle>
    <vehicle id="637" depart="254.80">
        <route edges="-gneE14 -gneE11 -gneE9 -gneE4 -gneE1 gneE3 gneE6"/>
    </vehicle>
    <vehicle id="639" depart="255.60">
        <route edges="-gneE1 gneE3"/>
    </vehicle>
    <vehicle id="641" depart="256.40">
        <route edges="-gneE4 -gneE1 gneE2 gneE7"/>
    </vehicle>
    <vehicle id="645" depart="258.00">
        <route edges="gneE12"/>
    </vehicle>
    <vehicle id="647" depart="258.80">
        <route edges="-gneE14 -gneE11 gneE12 gneE16"/>
    </vehicle>
    <vehicle id="650" depart="260.00">
        <route edges="gneE10 gneE13"/>
    </vehicle>
    <vehicle id="654" depart="261.60">
        <route edges="-gneE13 -gneE10 gneE11"/>
    </vehicle>
    <vehicle id="658" depart="263.20">
        <route edges="-gneE3 gneE1 gneE4"/>
    </vehicle>
    <vehicle id="659" depart="263.60">
        <route edges="gneE12 gneE16"/>
    </vehicle>
    <vehicle id="660" depart="264.00">
        <route edges="-gneE12 -gneE9 -gneE4 -gneE1 gneE2 gneE7"/>
    </vehicle>
    <vehicle id="672" depart="268.80">
        <route edges="-gneE10 gneE12 gneE16"/>
    </vehicle>
    <vehicle id="675" depart="270.00">
        <route edges="-gneE4 -gneE1"/>
    </vehicle>
    <vehicle id="676" depart="270.40">
        <route edges="-gneE14 -gneE11 gneE12"/>
    </vehicle>
    <vehicle id="678" depart="271.20">
        <route edges="-gneE16 -gneE12 -gneE9 -gneE4 -gneE1 gneE2"/>
    </vehicle>
    <vehicle id="679" depart="271.60">
        <route edges="-gneE10 gneE12 gneE16"/>
    </vehicle>
    <vehicle id="680" depart="272.00">
        <route edges="-gneE3 gneE0 gneE5"/>
    </vehicle>
    <vehicle id="683" depart="273.20">
        <route edges="-gneE4 -gneE1 gneE3"/>
    </vehicle>
    <vehicle id="686" depart="274.40">
        <route edges="-gneE14 -gneE11 -gneE9 -gneE4 -gneE1 gneE2 gneE7"/>
    </vehicle>
    <vehicle id="690" depart="276.00">
        <route edges="-gneE12 -gneE9 -gneE4 -gneE1 gneE3 gneE6"/>
    </vehicle>
    <vehicle id="691" depart="276.40">
        <route edges="-gneE13 -gneE10 gneE12"/>
    </vehicle>
    <vehicle id="692" depart="276.80">
        <route edges="-gneE10 gneE11"/>
    </vehicle>
    <vehicle id="698" depart="279.20">
        <route edges="-gneE7 -gneE2"/>
    </vehicle>
    <vehicle id="701" depart="280.40">
        <route edges="-gneE11 -gneE9 -gneE4 -gneE1"/>
    </vehicle>
    <vehicle id="704" depart="281.60">
        <route edges="-gneE14 -gneE11 -gneE9 -gneE4 -gneE1 gneE2 gneE7"/>
    </vehicle>
    <vehicle id="708" depart="283.20">
        <route edges="-gneE0 gneE1 gneE4 gneE9 gneE10 gneE13"/>
    </vehicle>
    <vehicle id="713" depart="285.20">
        <route edges="-gneE2 gneE0 gneE5"/>
    </vehicle>
    <vehicle id="714" depart="285.60">
        <route edges="-gneE16 -gneE12 -gneE9 -gneE4 -gneE1"/>
    </vehicle>
    <vehicle id="715" depart="286.00">
        <route edges="-gneE12 -gneE9 -gneE4 -gneE1 gneE2"/>
    </vehicle>
    <vehicle id="717" depart="286.80">
        <route edges="-gneE0 gneE1 gneE4 gneE9 gneE10 gneE13"/>
    </vehicle>
    <vehicle id="719" depart="287.60">
        <route edges="-gneE14 -gneE11 -gneE9 -gneE4 -gneE1 gneE2"/>
    </vehicle>
    <vehicle id="720" depart="288.00">
        <route edges="-gneE12 -gneE9 -gneE4 -gneE1"/>
    </vehicle>
    <vehicle id="725" depart="290.00">
        <route edges="-gneE9 -gneE4 -gneE1 gneE3 gneE6"/>
    </vehicle>
    <vehicle id="727" depart="290.80">
        <route edges="-gneE12 -gneE9 -gneE4"/>
    </vehicle>
    <vehicle id="728" depart="291.20">
        <route edges="-gneE2 gneE0"/>
    </vehicle>
    <vehicle id="731" depart="292.40">
        <route edges="-gneE0 gneE1"/>
    </vehicle>
    <vehicle id="736" depart="294.40">
        <route edges="-gneE9"/>
    </vehicle>
    <vehicle id="737" depart="294.80">
        <route edges="gneE4 gneE9 gneE10 gneE13"/>
    </vehicle>
    <vehicle id="739" depart="295.60">
        <route edges="-gneE10 gneE11 gneE14"/>
    </vehicle>
    <vehicle id="740" depart="296.00">
        <route edges="gneE10"/>
    </vehicle>
    <vehicle id="742" depart="296.80">
        <route edges="-gneE5 -gneE0 gneE1 gneE4 gneE9 gneE11"/>
    </vehicle>
    <vehicle id="743" depart="297.20">
        <route edges="-gneE12 -gneE9 -gneE4"/>
    </vehicle>
    <vehicle id="745" depart="298.00">
        <route edges="gneE4 gneE9"/>
    </vehicle>
    <vehicle id="746" depart="298.40">
        <route edges="-gneE2 gneE3 gneE6"/>
    </vehicle>
    <vehicle id="748" depart="299.20">
        <route edges="gneE9"/>
    </vehicle>
    <vehicle id="751" depart="300.40">
        <route edges="gneE4 gneE9"/>
    </vehicle>
    <vehicle id="754" depart="301.60">
        <route edges="-gneE9 -gneE4 -gneE1 gneE2 gneE7"/>
    </vehicle>
    <vehicle id="755" depart="302.00">
        <route edges="-gneE10 gneE12"/>
    </vehicle>
    <vehicle id="756" depart="302.40">
        <route edges="-gneE10 gneE12"/>
    </vehicle>
    <vehicle id="758" depart="303.20">
        <route edges="gneE9 gneE11 gneE14"/>
    </vehicle>
    <vehicle id="762" depart="304.80">
        <route edges="gneE2"/>
    </vehicle>
    <vehicle id="763" depart="305.20">
        <route edges="gneE11"/>
    </vehicle>
    <vehicle id="765" depart="306.00">
        <route edges="-gneE0 gneE1 gneE4 gneE9"/>
    </vehicle>
    <vehicle id="769" depart="307.60">
        <route edges="gneE4"/>
    </vehicle>
    <vehicle id="771" depart="308.40">
        <route edges="-gneE0 gneE2"/>
    </vehicle>
    <vehicle id="773" depart="309.20">
        <route edges="gneE4 gneE9 gneE11"/>
    </vehicle>
    <vehicle id="781" depart="312.40">
        <route edges="-gneE16 -gneE12 -gneE9 -gneE4"/>
    </vehicle>
    <vehicle id="788" depart="315.20">
        <route edges="gneE0"/>
    </vehicle>
    <vehicle id="789" depart="315.60">
        <route edges="-gneE6 -gneE3 gneE1"/>
    </vehicle>
    <vehicle id="796" depart="318.40">
        <route edges="-gneE12 gneE10"/>
    </vehicle>
    <vehicle id="807" depart="322.80">
        <route edges="-gneE11 gneE12"/>
    </vehicle>
    <vehicle id="808" depart="323.20">
        <route edges="-gneE14 -gneE11 -gneE9 -gneE4 -gneE1 gneE3 gneE6"/>
    </vehicle>
    <vehicle id="809" depart="323.60">
        <route edges="-gneE6 -gneE3 gneE1 gneE4 gneE9 gneE10"/>
    </vehicle>
    <vehicle id="813" depart="325.20">
        <route edges="-gneE6 -gneE3 gneE1 gneE4 gneE9 gneE10"/>
    </vehicle>
    <vehicle id="814" depart="325.60">
        <route edges="-gneE10 gneE11"/>
    </vehicle>
    <vehicle id="820" depart="328.00">
        <route edges="-gneE3 gneE1 gneE4 gneE9"/>
    </vehicle>
    <vehicle id="830" depart="332.00">
        <route edges="-gneE10 gneE12 gneE16"/>
    </vehicle>
    <vehicle id="831" depart="332.40">
        <route edges="gneE4 gneE9 gneE11 gneE14"/>
    </vehicle>
    <vehicle id="833" depart="333.20">
        <route edges="-gneE2 gneE3"/>
    </vehicle>
    <vehicle id="834" depart="333.60">
        <route edges="-gneE14 -gneE11 -gneE9 -gneE4 -gneE1 gneE3"/>
    </vehicle>
    <vehicle id="841" depart="336.40">
        <route edges="gneE4 gneE9 gneE11 gneE14"/>
    </vehicle>
    <vehicle id="842" depart="336.80">
        <route edges="-gneE12 -gneE9 -gneE4 -gneE1"/>
    </vehicle>
    <vehicle id="845" depart="338.00">
        <route edges="-gneE12 -gneE9 -gneE4 -gneE1 gneE3 gneE6"/>
    </vehicle>
    <vehicle id="848" depart="339.20">
        <route edges="-gneE16 -gneE12 -gneE9"/>
    </vehicle>
    <vehicle id="850" depart="340.00">
        <route edges="-gneE16 -gneE12 -gneE9"/>
    </vehicle>
    <vehicle id="851" depart="340.40">
        <route edges="-gneE10 gneE12"/>
    </vehicle>
    <vehicle id="853" depart="341.20">
        <route edges="-gneE11 -gneE9 -gneE4 -gneE1 gneE3"/>
    </vehicle>
    <vehicle id="854" depart="341.60">
        <route edges="gneE9 gneE11 gneE14"/>
    </vehicle>
    <vehicle id="859" depart="343.60">
        <route edges="-gneE11 -gneE9 -gneE4 -gneE1 gneE3 gneE6"/>
    </vehicle>
    <vehicle id="870" depart="348.00">
        <route edges="-gneE5 -gneE0 gneE1 gneE4 gneE9 gneE11 gneE14"/>
    </vehicle>
    <vehicle id="872" depart="348.80">
        <route edges="-gneE0 gneE1 gneE4 gneE9 gneE11 gneE14"/>
    </vehicle>
    <vehicle id="873" depart="349.20">
        <route edges="-gneE14 -gneE11 gneE12 gneE16"/>
    </vehicle>
    <vehicle id="898" depart="359.20">
        <route edges="-gneE12 -gneE9 -gneE4 -gneE1"/>
    </vehicle>
    <vehicle id="899" depart="359.60">
        <route edges="gneE4 gneE9 gneE10"/>
    </vehicle>
    <vehicle id="904" depart="361.60">
        <route edges="-gneE4 -gneE1 gneE3"/>
    </vehicle>
    <vehicle id="906" depart="362.40">
        <route edges="-gneE5 -gneE0 gneE1 gneE4"/>
    </vehicle>
    <vehicle id="910" depart="364.00">
        <route edges="-gneE16 -gneE12 -gneE9 -gneE4 -gneE1"/>
    </vehicle>
    <vehicle id="911" depart="364.40">
        <route edges="-gneE10"/>
    </vehicle>
    <vehicle id="918" depart="367.20">
        <route edges="gneE3 gneE6"/>
    </vehicle>
    <vehicle id="919" depart="367.60">
        <route edges="-gneE6 -gneE3 gneE1 gneE4"/>
    </vehicle>
    <vehicle id="929" depart="371.60">
        <route edges="gneE12"/>
    </vehicle>
    <vehicle id="933" depart="373.20">
        <route edges="-gneE16 -gneE12 -gneE9 -gneE4 -gneE1"/>
    </vehicle>
    <vehicle id="934" depart="373.60">
        <route edges="-gneE1 gneE2 gneE7"/>
    </vehicle>
    <vehicle id="935" depart="374.00">
        <route edges="gneE11"/>
    </vehicle>
    <vehicle id="939" depart="375.60">
        <route edges="-gneE0 gneE1 gneE4 gneE9 gneE10 gneE13"/>
    </vehicle>
    <vehicle id="944" depart="377.60">
        <route edges="-gneE12 -gneE9 -gneE4 -gneE1 gneE3"/>
    </vehicle>
    <vehicle id="945" depart="378.00">
        <route edges="gneE4"/>
    </vehicle>
    <vehicle id="952" depart="380.80">
        <route edges="gneE1 gneE4"/>
    </vehicle>
    <vehicle id="954" depart="381.60">
        <route edges="-gneE0"/>
    </vehicle>
    <vehicle id="955" depart="382.00">
        <route edges="-gneE6 -gneE3 gneE1 gneE4"/>
    </vehicle>
    <vehicle id="968" depart="387.20">
        <route edges="gneE1"/>
    </vehicle>
    <vehicle id="994" depart="397.60">
        <route edges="-gneE12 -gneE9 -gneE4"/>
    </vehicle>
    <vehicle id="1005" depart="402.00">
        <route edges="-gneE3 gneE0 gneE5"/>
    </vehicle>
    <vehicle id="1012" depart="404.80">
        <route edges="-gneE9 -gneE4 -gneE1 gneE3"/>
    </vehicle>
    <vehicle id="1016" depart="406.40">
        <route edges="-gneE16 -gneE12 gneE10"/>
    </vehicle>
    <vehicle id="1022" depart="408.80">
        <route edges="-gneE11 -gneE9 -gneE4 -gneE1 gneE2"/>
    </vehicle>
    <vehicle id="1024" depart="409.60">
        <route edges="-gneE12 -gneE9 -gneE4 -gneE1"/>
    </vehicle>
    <vehicle id="1026" depart="410.40">
        <route edges="-gneE2 gneE3"/>
    </vehicle>
    <vehicle id="1030" depart="412.00">
        <route edges="-gneE12 -gneE9 -gneE4 -gneE1"/>
    </vehicle>
    <vehicle id="1034" depart="413.60">
        <route edges="-gneE7 -gneE2 gneE0"/>
    </vehicle>
    <vehicle id="1041" depart="416.40">
        <route edges="-gneE11 gneE12"/>
    </vehicle>
    <vehicle id="1051" depart="420.40">
        <route edges="-gneE5 -gneE0 gneE1 gneE4"/>
    </vehicle>
    <vehicle id="1052" depart="420.80">
        <route edges="-gneE1 gneE3 gneE6"/>
    </vehicle>
    <vehicle id="1053" depart="421.20">
        <route edges="-gneE16 -gneE12 -gneE9 -gneE4 -gneE1 gneE3 gneE6"/>
    </vehicle>
    <vehicle id="1054" depart="421.60">