<?xml version="1.0" encoding="UTF-8"?>

<!-- generated on 2021-09-29 19:30:45 by Eclipse SUMO duarouter Version 1.9.2
<configuration xmlns:xsi="http://www.w3.org/2001/XMLSchema-instance" xsi:noNamespaceSchemaLocation="http://sumo.dlr.de/xsd/duarouterConfiguration.xsd">

    <input>
        <net-file value="/home/sonic/Desktop/nets/case03/intersection.net.xml"/>
        <route-files value="trips.trips.xml"/>
    </input>

    <output>
        <output-file value="intersection_random26.rou.xml"/>
        <alternatives-output value="intersection_random26.rou.alt.xml"/>
    </output>

    <time>
        <begin value="0"/>
        <end value="3600.0"/>
    </time>

    <report>
        <no-warnings value="true"/>
        <ignore-errors value="true"/>
        <no-step-log value="true"/>
    </report>

</configuration>
-->

<routes xmlns:xsi="http://www.w3.org/2001/XMLSchema-instance" xsi:noNamespaceSchemaLocation="http://sumo.dlr.de/xsd/routes_file.xsd">
    <vehicle id="0" depart="0.00">
        <route edges="gneE0"/>
    </vehicle>
    <vehicle id="1" depart="0.40">
        <route edges="gneE4"/>
    </vehicle>
    <vehicle id="8" depart="3.20">
        <route edges="gneE4 gneE9 gneE11"/>
    </vehicle>
    <vehicle id="16" depart="6.40">
        <route edges="-gneE5 -gneE0"/>
    </vehicle>
    <vehicle id="18" depart="7.20">
        <route edges="-gneE14 -gneE11 -gneE9 -gneE4 -gneE1"/>
    </vehicle>
    <vehicle id="21" depart="8.40">
        <route edges="-gneE12 -gneE9 -gneE4 -gneE1 gneE3"/>
    </vehicle>
    <vehicle id="23" depart="9.20">
        <route edges="-gneE0 gneE1 gneE4 gneE9"/>
    </vehicle>
    <vehicle id="27" depart="10.80">
        <route edges="gneE1"/>
    </vehicle>
    <vehicle id="28" depart="11.20">
        <route edges="gneE1 gneE4 gneE9 gneE10 gneE13"/>
    </vehicle>
    <vehicle id="29" depart="11.60">
        <route edges="-gneE0 gneE1 gneE4 gneE9 gneE11 gneE14"/>
    </vehicle>
    <vehicle id="31" depart="12.40">
        <route edges="-gneE11 -gneE9 -gneE4 -gneE1"/>
    </vehicle>
    <vehicle id="33" depart="13.20">
        <route edges="-gneE1 gneE3 gneE6"/>
    </vehicle>
    <vehicle id="34" depart="13.60">
        <route edges="-gneE4 -gneE1 gneE3 gneE6"/>
    </vehicle>
    <vehicle id="44" depart="17.60">
        <route edges="-gneE14 -gneE11"/>
    </vehicle>
    <vehicle id="55" depart="22.00">
        <route edges="-gneE10 gneE12"/>
    </vehicle>
    <vehicle id="57" depart="22.80">
        <route edges="-gneE4"/>
    </vehicle>
    <vehicle id="58" depart="23.20">
        <route edges="-gneE0 gneE2"/>
    </vehicle>
    <vehicle id="59" depart="23.60">
        <route edges="-gneE12 -gneE9 -gneE4 -gneE1 gneE3 gneE6"/>
    </vehicle>
    <vehicle id="60" depart="24.00">
        <route edges="-gneE5 -gneE0 gneE1 gneE4 gneE9 gneE11 gneE14"/>
    </vehicle>
    <vehicle id="62" depart="24.80">
        <route edges="-gneE9 -gneE4"/>
    </vehicle>
    <vehicle id="63" depart="25.20">
        <route edges="gneE1 gneE4 gneE9"/>
    </vehicle>
    <vehicle id="65" depart="26.00">
        <route edges="gneE10 gneE13"/>
    </vehicle>
    <vehicle id="69" depart="27.60">
        <route edges="-gneE13 -gneE10 gneE12 gneE16"/>
    </vehicle>
    <vehicle id="75" depart="30.00">
        <route edges="gneE2 gneE7"/>
    </vehicle>
    <vehicle id="79" depart="31.60">
        <route edges="-gneE5 -gneE0 gneE1 gneE4 gneE9 gneE10 gneE13"/>
    </vehicle>
    <vehicle id="80" depart="32.00">
        <route edges="gneE3"/>
    </vehicle>
    <vehicle id="89" depart="35.60">
        <route edges="-gneE11 -gneE9"/>
    </vehicle>
    <vehicle id="93" depart="37.20">
        <route edges="-gneE5 -gneE0 gneE1 gneE4 gneE9 gneE11 gneE14"/>
    </vehicle>
    <vehicle id="95" depart="38.00">
        <route edges="gneE0"/>
    </vehicle>
    <vehicle id="98" depart="39.20">
        <route edges="-gneE11 -gneE9 -gneE4"/>
    </vehicle>
    <vehicle id="99" depart="39.60">
        <route edges="-gneE5 -gneE0 gneE1"/>
    </vehicle>
    <vehicle id="100" depart="40.00">
        <route edges="-gneE12 gneE10 gneE13"/>
    </vehicle>
    <vehicle id="101" depart="40.40">
        <route edges="-gneE6 -gneE3 gneE1 gneE4 gneE9 gneE11"/>
    </vehicle>
    <vehicle id="105" depart="42.00">
        <route edges="-gneE4 -gneE1"/>
    </vehicle>
    <vehicle id="109" depart="43.60">
        <route edges="gneE11"/>
    </vehicle>
    <vehicle id="115" depart="46.00">
        <route edges="-gneE1 gneE3 gneE6"/>
    </vehicle>
    <vehicle id="128" depart="51.20">
        <route edges="-gneE1 gneE2"/>
    </vehicle>
    <vehicle id="136" depart="54.40">
        <route edges="gneE2"/>
    </vehicle>
    <vehicle id="142" depart="56.80">
        <route edges="-gneE2"/>
    </vehicle>
    <vehicle id="148" depart="59.20">
        <route edges="-gneE2 gneE0 gneE5"/>
    </vehicle>
    <vehicle id="154" depart="61.60">
        <route edges="-gneE4 -gneE1 gneE3"/>
    </vehicle>
    <vehicle id="162" depart="64.80">
        <route edges="-gneE9 -gneE4 -gneE1 gneE2"/>
    </vehicle>
    <vehicle id="175" depart="70.00">
        <route edges="gneE0"/>
    </vehicle>
    <vehicle id="178" depart="71.20">
        <route edges="gneE1"/>
    </vehicle>
    <vehicle id="182" depart="72.80">
        <route edges="-gneE14 -gneE11 -gneE9 -gneE4"/>
    </vehicle>
    <vehicle id="188" depart="75.20">
        <route edges="-gneE12 -gneE9 -gneE4"/>
    </vehicle>
    <vehicle id="192" depart="76.80">
        <route edges="-gneE10"/>
    </vehicle>
    <vehicle id="198" depart="79.20">
        <route edges="-gneE3 gneE1 gneE4 gneE9 gneE11"/>
    </vehicle>
    <vehicle id="201" depart="80.40">
        <route edges="-gneE12 gneE10 gneE13"/>
    </vehicle>
    <vehicle id="204" depart="81.60">
        <route edges="-gneE16 -gneE12 -gneE9 -gneE4 -gneE1 gneE3 gneE6"/>
    </vehicle>
    <vehicle id="208" depart="83.20">
        <route edges="-gneE4 -gneE1 gneE3 gneE6"/>
    </vehicle>
    <vehicle id="211" depart="84.40">
        <route edges="-gneE12 gneE10 gneE13"/>
    </vehicle>
    <vehicle id="214" depart="85.60">
        <route edges="-gneE11 -gneE9 -gneE4 -gneE1 gneE2"/>
    </vehicle>
    <vehicle id="216" depart="86.40">
        <route edges="-gneE5 -gneE0 gneE2 gneE7"/>
    </vehicle>
    <vehicle id="218" depart="87.20">
        <route edges="-gneE0 gneE1 gneE4 gneE9 gneE11 gneE14"/>
    </vehicle>
    <vehicle id="219" depart="87.60">
        <route edges="gneE1 gneE4 gneE9 gneE10 gneE13"/>
    </vehicle>
    <vehicle id="220" depart="88.00">
        <route edges="-gneE11 gneE12 gneE16"/>
    </vehicle>
    <vehicle id="221" depart="88.40">
        <route edges="-gneE6 -gneE3 gneE0"/>
    </vehicle>
    <vehicle id="223" depart="89.20">
        <route edges="-gneE2 gneE3"/>
    </vehicle>
    <vehicle id="226" depart="90.40">
        <route edges="-gneE1 gneE2 gneE7"/>
    </vehicle>
    <vehicle id="227" depart="90.80">
        <route edges="gneE4 gneE9 gneE11 gneE14"/>
    </vehicle>
    <vehicle id="230" depart="92.00">
        <route edges="gneE9"/>
    </vehicle>
    <vehicle id="231" depart="92.40">
        <route edges="gneE1 gneE4 gneE9"/>
    </vehicle>
    <vehicle id="235" depart="94.00">
        <route edges="gneE1 gneE4 gneE9 gneE11 gneE14"/>
    </vehicle>
    <vehicle id="236" depart="94.40">
        <route edges="-gneE3 gneE0"/>
    </vehicle>
    <vehicle id="238" depart="95.20">
        <route edges="gneE1 gneE4 gneE9"/>
    </vehicle>
    <vehicle id="239" depart="95.60">
        <route edges="gneE0 gneE5"/>
    </vehicle>
    <vehicle id="240" depart="96.00">
        <route edges="-gneE5 -gneE0 gneE1 gneE4 gneE9 gneE10"/>
    </vehicle>
    <vehicle id="242" depart="96.80">
        <route edges="-gneE0 gneE2 gneE7"/>
    </vehicle>
    <vehicle id="246" depart="98.40">
        <route edges="-gneE0 gneE1 gneE4 gneE9 gneE10 gneE13"/>
    </vehicle>
    <vehicle id="248" depart="99.20">
        <route edges="-gneE9 -gneE4 -gneE1 gneE2"/>
    </vehicle>
    <vehicle id="253" depart="101.20">
        <route edges="-gneE14 -gneE11 -gneE9 -gneE4 -gneE1 gneE2 gneE7"/>
    </vehicle>
    <vehicle id="257" depart="102.80">
        <route edges="-gneE11 -gneE9 -gneE4 -gneE1 gneE3"/>
    </vehicle>
    <vehicle id="259" depart="103.60">
        <route edges="gneE3"/>
    </vehicle>
    <vehicle id="270" depart="108.00">
        <route edges="gneE11"/>
    </vehicle>
    <vehicle id="292" depart="116.80">
        <route edges="-gneE5 -gneE0 gneE1 gneE4 gneE9"/>
    </vehicle>
    <vehicle id="294" depart="117.60">
        <route edges="-gneE0 gneE1 gneE4"/>
    </vehicle>
    <vehicle id="295" depart="118.00">
        <route edges="-gneE16 -gneE12 gneE10 gneE13"/>
    </vehicle>
    <vehicle id="297" depart="118.80">
        <route edges="-gneE0 gneE1 gneE4 gneE9 gneE10"/>
    </vehicle>
    <vehicle id="301" depart="120.40">
        <route edges="-gneE14 -gneE11 gneE12"/>
    </vehicle>
    <vehicle id="302" depart="120.80">
        <route edges="-gneE11 -gneE9 -gneE4 -gneE1 gneE3"/>
    </vehicle>
    <vehicle id="315" depart="126.00">
        <route edges="-gneE12 -gneE9 -gneE4 -gneE1 gneE3 gneE6"/>
    </vehicle>
    <vehicle id="326" depart="130.40">
        <route edges="-gneE11 -gneE9 -gneE4 -gneE1 gneE3 gneE6"/>
    </vehicle>
    <vehicle id="328" depart="131.20">
        <route edges="gneE4 gneE9 gneE10"/>
    </vehicle>
    <vehicle id="332" depart="132.80">
        <route edges="-gneE2 gneE3"/>
    </vehicle>
    <vehicle id="334" depart="133.60">
        <route edges="-gneE5 -gneE0 gneE2 gneE7"/>
    </vehicle>
    <vehicle id="337" depart="134.80">
        <route edges="gneE9 gneE10 gneE13"/>
    </vehicle>
    <vehicle id="351" depart="140.40">
        <route edges="-gneE7 -gneE2 gneE0"/>
    </vehicle>
    <vehicle id="355" depart="142.00">
        <route edges="-gneE6 -gneE3 gneE1 gneE4 gneE9 gneE10 gneE13"/>
    </vehicle>
    <vehicle id="356" depart="142.40">
        <route edges="gneE12 gneE16"/>
    </vehicle>
    <vehicle id="360" depart="144.00">
        <route edges="-gneE2 gneE0 gneE5"/>
    </vehicle>
    <vehicle id="362" depart="144.80">
        <route edges="-gneE14 -gneE11 -gneE9 -gneE4 -gneE1 gneE2"/>
    </vehicle>
    <vehicle id="365" depart="146.00">
        <route edges="-gneE13 -gneE10 gneE11"/>
    </vehicle>
    <vehicle id="383" depart="153.20">
        <route edges="-gneE14 -gneE11"/>
    </vehicle>
    <vehicle id="385" depart="154.00">
        <route edges="-gneE14 -gneE11"/>
    </vehicle>
    <vehicle id="387" depart="154.80">
        <route edges="-gneE2 gneE3 gneE6"/>
    </vehicle>
    <vehicle id="390" depart="156.00">
        <route edges="-gneE0 gneE1 gneE4 gneE9"/>
    </vehicle>
    <vehicle id="395" depart="158.00">
        <route edges="-gneE10 gneE12"/>
    </vehicle>
    <vehicle id="401" depart="160.40">
        <route edges="-gneE14 -gneE11"/>
    </vehicle>
    <vehicle id="402" depart="160.80">
        <route edges="-gneE13 -gneE10 gneE12"/>
    </vehicle>
    <vehicle id="406" depart="162.40">
        <route edges="-gneE7 -gneE2 gneE3"/>
    </vehicle>
    <vehicle id="408" depart="163.20">
        <route edges="-gneE12 -gneE9 -gneE4 -gneE1 gneE3"/>
    </vehicle>
    <vehicle id="410" depart="164.00">
        <route edges="-gneE12 -gneE9"/>
    </vehicle>
    <vehicle id="416" depart="166.40">
        <route edges="-gneE7 -gneE2 gneE3 gneE6"/>
    </vehicle>
    <vehicle id="417" depart="166.80">
        <route edges="-gneE9 -gneE4 -gneE1 gneE2 gneE7"/>
    </vehicle>
    <vehicle id="426" depart="170.40">
        <route edges="-gneE11 -gneE9 -gneE4 -gneE1 gneE3"/>
    </vehicle>
    <vehicle id="437" depart="174.80">
        <route edges="-gneE3 gneE0"/>
    </vehicle>
    <vehicle id="445" depart="178.00">
        <route edges="-gneE12"/>
    </vehicle>
    <vehicle id="459" depart="183.60">
        <route edges="-gneE13 -gneE10"/>
    </vehicle>
    <vehicle id="460" depart="184.00">
        <route edges="-gneE5 -gneE0 gneE1 gneE4 gneE9 gneE10 gneE13"/>
    </vehicle>
    <vehicle id="463" depart="185.20">
        <route edges="-gneE3"/>
    </vehicle>
    <vehicle id="476" depart="190.40">
        <route edges="-gneE14 -gneE11"/>
    </vehicle>
    <vehicle id="485" depart="194.00">
        <route edges="-gneE14 -gneE11 -gneE9 -gneE4 -gneE1 gneE3"/>
    </vehicle>
    <vehicle id="491" depart="196.40">
        <route edges="gneE1 gneE4 gneE9 gneE10 gneE13"/>
    </vehicle>
    <vehicle id="492" depart="196.80">
        <route edges="-gneE1 gneE3"/>
    </vehicle>
    <vehicle id="494" depart="197.60">
        <route edges="gneE1 gneE4"/>
    </vehicle>
    <vehicle id="495" depart="198.00">
        <route edges="-gneE1 gneE3 gneE6"/>
    </vehicle>
    <vehicle id="501" depart="200.40">
        <route edges="-gneE2 gneE3"/>
    </vehicle>
    <vehicle id="504" depart="201.60">
        <route edges="-gneE12 -gneE9 -gneE4 -gneE1 gneE2 gneE7"/>
    </vehicle>
    <vehicle id="513" depart="205.20">
        <route edges="-gneE16 -gneE12 -gneE9 -gneE4 -gneE1 gneE3"/>
    </vehicle>
    <vehicle id="520" depart="208.00">
        <route edges="-gneE3 gneE1 gneE4 gneE9 gneE11 gneE14"/>
    </vehicle>
    <vehicle id="536" depart="214.40">
        <route edges="-gneE0 gneE1 gneE4 gneE9"/>
    </vehicle>
    <vehicle id="539" depart="215.60">
        <route edges="-gneE16 -gneE12 -gneE9 -gneE4 -gneE1 gneE3 gneE6"/>
    </vehicle>
    <vehicle id="540" depart="216.00">
        <route edges="-gneE7 -gneE2"/>
    </vehicle>
    <vehicle id="544" depart="217.60">
        <route edges="-gneE4 -gneE1"/>
    </vehicle>
    <vehicle id="548" depart="219.20">
        <route edges="-gneE6 -gneE3 gneE1 gneE4 gneE9 gneE10 gneE13"/>
    </vehicle>
    <vehicle id="550" depart="220.00">
        <route edges="-gneE9 -gneE4 -gneE1 gneE3"/>
    </vehicle>
    <vehicle id="552" depart="220.80">
        <route edges="-gneE9 -gneE4 -gneE1 gneE2 gneE7"/>
    </vehicle>
    <vehicle id="554" depart="221.60">
        <route edges="-gneE9 -gneE4 -gneE1 gneE3 gneE6"/>
    </vehicle>
    <vehicle id="555" depart="222.00">
        <route edges="-gneE0"/>
    </vehicle>
    <vehicle id="557" depart="222.80">
        <route edges="-gneE14 -gneE11 -gneE9 -gneE4"/>
    </vehicle>
    <vehicle id="563" depart="225.20">
        <route edges="-gneE2 gneE3 gneE6"/>
    </vehicle>
    <vehicle id="565" depart="226.00">
        <route edges="gneE9 gneE10 gneE13"/>
    </vehicle>
    <vehicle id="566" depart="226.40">
        <route edges="-gneE9 -gneE4"/>
    </vehicle>
    <vehicle id="569" depart="227.60">
        <route edges="gneE1"/>
    </vehicle>
    <vehicle id="571" depart="228.40">
        <route edges="-gneE2"/>
    </vehicle>
    <vehicle id="580" depart="232.00">
        <route edges="-gneE7 -gneE2 gneE0 gneE5"/>
    </vehicle>
    <vehicle id="582" depart="232.80">
        <route edges="-gneE6 -gneE3 gneE1 gneE4 gneE9"/>
    </vehicle>
    <vehicle id="585" depart="234.00">
        <route edges="-gneE14 -gneE11 -gneE9 -gneE4 -gneE1 gneE3 gneE6"/>
    </vehicle>
    <vehicle id="586" depart="234.40">
        <route edges="-gneE11 -gneE9 -gneE4 -gneE1 gneE2 gneE7"/>
    </vehicle>
    <vehicle id="595" depart="238.00">
        <route edges="-gneE11 -gneE9 -gneE4 -gneE1 gneE2 gneE7"/>
    </vehicle>
    <vehicle id="596" depart="238.40">
        <route edges="-gneE16 -gneE12 -gneE9 -gneE4 -gneE1 gneE3 gneE6"/>
    </vehicle>
    <vehicle id="602" depart="240.80">
        <route edges="-gneE14 -gneE11 -gneE9 -gneE4 -gneE1 gneE3"/>
    </vehicle>
    <vehicle id="606" depart="242.40">
        <route edges="-gneE3 gneE1 gneE4 gneE9"/>
    </vehicle>
    <vehicle id="612" depart="244.80">
        <route edges="gneE4"/>
    </vehicle>
    <vehicle id="616" depart="246.40">
        <route edges="gneE9 gneE11 gneE14"/>
    </vehicle>
    <vehicle id="617" depart="246.80">
        <route edges="-gneE4 -gneE1 gneE3"/>
    </vehicle>
    <vehicle id="620" depart="248.00">
        <route edges="gneE1 gneE4 gneE9 gneE10 gneE13"/>
    </vehicle>
    <vehicle id="621" depart="248.40">
        <route edges="-gneE13 -gneE10 gneE12 gneE16"/>
    </vehicle>
    <vehicle id="624" depart="249.60">
        <route edges="gneE4 gneE9 gneE11"/>
    </vehicle>
    <vehicle id="625" depart="250.00">
        <route edges="-gneE5 -gneE0 gneE1 gneE4 gneE9 gneE11 gneE14"/>
    </vehicle>
    <vehicle id="629" depart="251.60">
        <route edges="-gneE11 -gneE9 -gneE4 -gneE1 gneE2"/>
    </vehicle>
    <vehicle id="652" depart="260.80">
        <route edges="gneE4 gneE9"/>
    </vehicle>
    <vehicle id="653" depart="261.20">
        <route edges="gneE10"/>
    </vehicle>
    <vehicle id="658" depart="263.20">
        <route edges="-gneE0 gneE2 gneE7"/>
    </vehicle>
    <vehicle id="662" depart="264.80">
        <route edges="-gneE12 -gneE9 -gneE4 -gneE1 gneE3"/>
    </vehicle>
    <vehicle id="663" depart="265.20">
        <route edges="-gneE13 -gneE10"/>
    </vehicle>
    <vehicle id="666" depart="266.40">
        <route edges="-gneE10 gneE12 gneE16"/>
    </vehicle>
    <vehicle id="670" depart="268.00">
        <route edges="gneE9 gneE11"/>
    </vehicle>
    <vehicle id="672" depart="268.80">
        <route edges="-gneE14 -gneE11"/>
    </vehicle>
    <vehicle id="684" depart="273.60">
        <route edges="-gneE9 -gneE4 -gneE1 gneE2"/>
    </vehicle>
    <vehicle id="688" depart="275.20">
        <route edges="-gneE7 -gneE2"/>
    </vehicle>
    <vehicle id="693" depart="277.20">
        <route edges="-gneE6 -gneE3 gneE0"/>
    </vehicle>
    <vehicle id="694" depart="277.60">
        <route edges="-gneE11 -gneE9 -gneE4 -gneE1"/>
    </vehicle>
    <vehicle id="696" depart="278.40">
        <route edges="-gneE9 -gneE4"/>
    </vehicle>
    <vehicle id="697" depart="278.80">
        <route edges="-gneE3 gneE1 gneE4 gneE9 gneE10 gneE13"/>
    </vehicle>
    <vehicle id="704" depart="281.60">
        <route edges="-gneE6 -gneE3"/>
    </vehicle>
    <vehicle id="705" depart="282.00">
        <route edges="-gneE6 -gneE3 gneE0 gneE5"/>
    </vehicle>
    <vehicle id="706" depart="282.40">
        <route edges="-gneE11 -gneE9 -gneE4 -gneE1 gneE3 gneE6"/>
    </vehicle>
    <vehicle id="707" depart="282.80">
        <route edges="-gneE0 gneE1 gneE4"/>
    </vehicle>
    <vehicle id="709" depart="283.60">
        <route edges="-gneE11 gneE12 gneE16"/>
    </vehicle>
    <vehicle id="710" depart="284.00">
        <route edges="-gneE3 gneE1 gneE4"/>
    </vehicle>
    <vehicle id="714" depart="285.60">
        <route edges="-gneE9 -gneE4 -gneE1"/>
    </vehicle>
    <vehicle id="719" depart="287.60">
        <route edges="-gneE6 -gneE3 gneE1 gneE4 gneE9 gneE10"/>
    </vehicle>
    <vehicle id="720" depart="288.00">
        <route edges="-gneE16 -gneE12 -gneE9 -gneE4 -gneE1 gneE3 gneE6"/>
    </vehicle>
    <vehicle id="722" depart="288.80">
        <route edges="-gneE5 -gneE0"/>
    </vehicle>
    <vehicle id="729" depart="291.60">
        <route edges="-gneE7 -gneE2 gneE0"/>
    </vehicle>
    <vehicle id="730" depart="292.00">
        <route edges="-gneE1 gneE2 gneE7"/>
    </vehicle>
    <vehicle id="731" depart="292.40">
        <route edges="-gneE14 -gneE11 gneE12"/>
    </vehicle>
    <vehicle id="733" depart="293.20">
        <route edges="-gneE3 gneE1"/>
    </vehicle>
    <vehicle id="737" depart="294.80">
        <route edges="gneE2 gneE7"/>
    </vehicle>
    <vehicle id="739" depart="295.60">
        <route edges="-gneE13 -gneE10 gneE11"/>
    </vehicle>
    <vehicle id="748" depart="299.20">
        <route edges="-gneE9 -gneE4 -gneE1"/>
    </vehicle>
    <vehicle id="749" depart="299.60">
        <route edges="-gneE2 gneE0 gneE5"/>
    </vehicle>
    <vehicle id="751" depart="300.40">
        <route edges="-gneE4 -gneE1 gneE3 gneE6"/>
    </vehicle>
    <vehicle id="752" depart="300.80">
        <route edges="gneE3 gneE6"/>
    </vehicle>
    <vehicle id="753" depart="301.20">
        <route edges="gneE9 gneE11 gneE14"/>
    </vehicle>
    <vehicle id="755" depart="302.00">
        <route edges="-gneE9 -gneE4"/>
    </vehicle>
    <vehicle id="756" depart="302.40">
        <route edges="gneE10"/>
    </vehicle>
    <vehicle id="758" depart="303.20">
        <route edges="-gneE12 -gneE9 -gneE4 -gneE1 gneE2"/>
    </vehicle>
    <vehicle id="769" depart="307.60">
        <route edges="gneE9 gneE11 gneE14"/>
    </vehicle>
    <vehicle id="770" depart="308.00">
        <route edges="-gneE4 -gneE1 gneE2 gneE7"/>
    </vehicle>
    <vehicle id="771" depart="308.40">
        <route edges="-gneE4 -gneE1 gneE3 gneE6"/>
    </vehicle>
    <vehicle id="783" depart="313.20">
        <route edges="-gneE6 -gneE3 gneE1 gneE4 gneE9 gneE11 gneE14"/>
    </vehicle>
    <vehicle id="785" depart="314.00">
        <route edges="-gneE9"/>
    </vehicle>
    <vehicle id="788" depart="315.20">
        <route edges="gneE1"/>
    </vehicle>
    <vehicle id="792" depart="316.80">
        <route edges="-gneE4 -gneE1 gneE3 gneE6"/>
    </vehicle>
    <vehicle id="795" depart="318.00">
        <route edges="-gneE16 -gneE12 -gneE9 -gneE4 -gneE1"/>
    </vehicle>
    <vehicle id="801" depart="320.40">
        <route edges="-gneE11 -gneE9 -gneE4 -gneE1 gneE2"/>
    </vehicle>
    <vehicle id="812" depart="324.80">
        <route edges="-gneE11 -gneE9 -gneE4 -gneE1 gneE2"/>
    </vehicle>
    <vehicle id="814" depart="325.60">
        <route edges="-gneE11 -gneE9 -gneE4 -gneE1 gneE3"/>
    </vehicle>
    <vehicle id="819" depart="327.60">
        <route edges="gneE4"/>
    </vehicle>
    <vehicle id="822" depart="328.80">
        <route edges="-gneE6 -gneE3 gneE1 gneE4 gneE9 gneE10"/>
    </vehicle>
    <vehicle id="824" depart="329.60">
        <route edges="-gneE9 -gneE4 -gneE1 gneE2"/>
    </vehicle>
    <vehicle id="825" depart="330.00">
        <route edges="-gneE5 -gneE0 gneE1 gneE4"/>
    </vehicle>
    <vehicle id="826" depart="330.40">
        <route edges="-gneE0 gneE1 gneE4 gneE9 gneE11"/>
    </vehicle>
    <vehicle id="830" depart="332.00">
        <route edges="-gneE9"/>
    </vehicle>
    <vehicle id="832" depart="332.80">
        <route edges="-gneE0 gneE1 gneE4 gneE9 gneE11 gneE14"/>
    </vehicle>
    <vehicle id="839" depart="335.60">
        <route edges="-gneE5 -gneE0 gneE1 gneE4 gneE9 gneE11"/>
    </vehicle>
    <vehicle id="841" depart="336.40">
        <route edges="-gneE4 -gneE1 gneE3"/>
    </vehicle>
    <vehicle id="843" depart="337.20">
        <route edges="-gneE2 gneE3"/>
    </vehicle>
    <vehicle id="847" depart="338.80">
        <route edges="-gneE16 -gneE12 gneE10 gneE13"/>
    </vehicle>
    <vehicle id="848" depart="339.20">
        <route edges="-gneE14 -gneE11 -gneE9 -gneE4"/>
    </vehicle>
    <vehicle id="854" depart="341.60">
        <route edges="-gneE9 -gneE4 -gneE1 gneE2"/>
    </vehicle>
    <vehicle id="856" depart="342.40">
        <route edges="-gneE3 gneE1 gneE4 gneE9 gneE11"/>
    </vehicle>
    <vehicle id="857" depart="342.80">
        <route edges="-gneE2 gneE3 gneE6"/>
    </vehicle>
    <vehicle id="858" depart="343.20">
        <route edges="-gneE13 -gneE10 gneE12 gneE16"/>
    </vehicle>
    <vehicle id="859" depart="343.60">
        <route edges="-gneE12"/>
    </vehicle>
    <vehicle id="863" depart="345.20">
        <route edges="-gneE4 -gneE1"/>
    </vehicle>
    <vehicle id="864" depart="345.60">
        <route edges="-gneE10"/>
    </vehicle>
    <vehicle id="870" depart="348.00">
        <route edges="-gneE2 gneE0 gneE5"/>
    </vehicle>
    <vehicle id="881" depart="352.40">
        <route edges="-gneE12 gneE10"/>
    </vehicle>
    <vehicle id="885" depart="354.00">
        <route edges="-gneE0 gneE1"/>
    </vehicle>
    <vehicle id="886" depart="354.40">
        <route edges="-gneE3 gneE1 gneE4 gneE9"/>
    </vehicle>
    <vehicle id="893" depart="357.20">
        <route edges="-gneE3 gneE1 gneE4 gneE9"/>
    </vehicle>
    <vehicle id="895" depart="358.00">
        <route edges="-gneE11 gneE12"/>
    </vehicle>
    <vehicle id="899" depart="359.60">
        <route edges="gneE0 gneE5"/>
    </vehicle>
    <vehicle id="901" depart="360.40">
        <route edges="gneE1 gneE4 gneE9"/>
    </vehicle>
    <vehicle id="903" depart="361.20">
        <route edges="-gneE14 -gneE11 -gneE9"/>
    </vehicle>
    <vehicle id="905" depart="362.00">
        <route edges="-gneE5 -gneE0 gneE2"/>
    </vehicle>
    <vehicle id="906" depart="362.40">
        <route edges="-gneE13 -gneE10"/>
    </vehicle>
    <vehicle id="909" depart="363.60">
        <route edges="-gneE16 -gneE12 -gneE9"/>
    </vehicle>
    <vehicle id="912" depart="364.80">
        <route edges="-gneE3 gneE1 gneE4 gneE9"/>
    </vehicle>
    <vehicle id="923" depart="369.20">
        <route edges="-gneE14 -gneE11"/>
    </vehicle>
    <vehicle id="925" depart="370.00">
        <route edges="-gneE14 -gneE11 -gneE9 -gneE4"/>
    </vehicle>
    <vehicle id="935" depart="374.00">
        <route edges="-gneE14 -gneE11 -gneE9 -gneE4 -gneE1 gneE3"/>
    </vehicle>
    <vehicle id="939" depart="375.60">
        <route edges="-gneE4 -gneE1 gneE2"/>
    </vehicle>
    <vehicle id="941" depart="376.40">
        <route edges="-gneE3 gneE1 gneE4"/>
    </vehicle>
    <vehicle id="945" depart="378.00">
        <route edges="-gneE5 -gneE0 gneE1"/>
    </vehicle>
    <vehicle id="946" depart="378.40">
        <route edges="-gneE5 -gneE0"/>
    </vehicle>
    <vehicle id="947" depart="378.80">
        <route edges="-gneE9 -gneE4 -gneE1 gneE2"/>
    </vehicle>
    <vehicle id="949" depart="379.60">
        <route edges="-gneE14 -gneE11 -gneE9 -gneE4 -gneE1 gneE2 gneE7"/>
    </vehicle>
    <vehicle id="950" depart="380.00">
        <route edges="-gneE5 -gneE0 gneE2 gneE7"/>
    </vehicle>
    <vehicle id="951" depart="380.40">
        <route edges="-gneE13 -gneE10"/>
    </vehicle>
    <vehicle id="959" depart="383.60">
        <route edges="-gneE4 -gneE1 gneE3 gneE6"/>
    </vehicle>
    <vehicle id="967" depart="386.80">
        <route edges="-gneE10 gneE12"/>
    </vehicle>
    <vehicle id="968" depart="387.20">
        <route edges="-gneE14 -gneE11 -gneE9 -gneE4 -gneE1 gneE3 gneE6"/>
    </vehicle>
    <vehicle id="973" depart="389.20">
        <route edges="-gneE1 gneE2 gneE7"/>
    </vehicle>
    <vehicle id="977" depart="390.80">
        <route edges="-gneE2 gneE0"/>
    </vehicle>
    <vehicle id="979" depart="391.60">
        <route edges="-gneE12 gneE10"/>
    </vehicle>
    <vehicle id="982" depart="392.80">
        <route edges="-gneE12 -gneE9"/>
    </vehicle>
    <vehicle id="985" depart="394.00">
        <route edges="-gneE13 -gneE10 gneE11"/>
    </vehicle>
    <vehicle id="989" depart="395.60">
        <route edges="-gneE3 gneE1 gneE4 gneE9 gneE10 gneE13"/>
    </vehicle>
    <vehicle id="992" depart="396.80">
        <route edges="-gneE3 gneE1 gneE4 gneE9 gneE10"/>
    </vehicle>
    <vehicle id="994" depart="397.60">
        <route edges="-gneE0 gneE1 gneE4"/>
    </vehicle>
    <vehicle id="995" depart="398.00">
        <route edges="-gneE13 -gneE10 gneE12 gneE16"/>
    </vehicle>
    <vehicle id="996" depart="398.40">
        <route edges="-gneE16 -gneE12 -gneE9"/>
    </vehicle>
    <vehicle id="998" depart="399.20">
        <route edges="gneE1 gneE4 gneE9"/>
    </vehicle>
    <vehicle id="1006" depart="402.40">
        <route edges="-gneE5 -gneE0 gneE1 gneE4 gneE9 gneE11 gneE14"/>
    </vehicle>
    <vehicle id="1007" depart="402.80">
        <route edges="-gneE0 gneE1 gneE4 gneE9 gneE11 gneE14"/>
    </vehicle>
    <vehicle id="1010" depart="404.00">
        <route edges="-gneE0 gneE1 gneE4 gneE9 gneE11"/>
    </vehicle>
    <vehicle id="1011" depart="404.40">
        <route edges="-gneE6 -gneE3 gneE1 gneE4 gneE9 gneE11"/>
    </vehicle>
    <vehicle id="1014" depart="405.60">
        <route edges="-gneE7 -gneE2 gneE3 gneE6"/>
    </vehicle>
    <vehicle id="1017" depart="406.80">
        <route edges="-gneE13 -gneE10 gneE12 gneE16"/>
    </vehicle>
    <vehicle id="1019" depart="407.60">
        <route edges="-gneE3 gneE1 gneE4 gneE9 gneE11"/>
    </vehicle>
    <vehicle id="1020" depart="408.00">
        <route edges="-gneE0"/>
    </vehicle>
    <vehicle id="1021" depart="408.40">
        <route edges="-gneE16 -gneE12 -gneE9 -gneE4 -gneE1 gneE3 gneE6"/>
    </vehicle>
    <vehicle id="1029" depart="411.60">
        <route edges="gneE12"/>
    </vehicle>
    <vehicle id="1033" depart="413.20">
        <route edges="-gneE0 gneE1 gneE4 gneE9 gneE10 gneE13"/>
    </vehicle>
    <vehicle id="1044" depart="417.60">
        <route edges="-gneE12 -gneE9"/>
    </vehicle>
    <vehicle id="1047" depart="418.80">
        <route edges="-gneE0 gneE2 gneE7"/>
    </vehicle>
    <vehicle id="1048" depart="419.20">
        <route edges="-gneE12 gneE10"/>
    </vehicle>
    <vehicle id="1049" depart="419.60">
        <route edges="-gneE12 -gneE9 -gneE4 -gneE1 gneE3 gneE6"/>
    </vehicle>
    <vehicle id="1050" depart="420.00">
        <route edges="-gneE9 -gneE4 -gneE1 gneE2"/>
    </vehicle>
    <vehicle id="1053" depart="421.20">
        <route edges="-gneE7 -gneE2 gneE3 gneE6"/>
    </vehicle>
    <vehicle id="1068" depart="427.20">
        <route edges="-gneE14 -gneE11 -gneE9 -gneE4 -gneE1 gneE3"/>
    </vehicle>
    <vehicle id="1071" depart="428.40">
        <route edges="-gneE11 -gneE9 -gneE4 -gneE1"/>
    </vehicle>
    <vehicle id="1075" depart="430.00">
        <route edges="-gneE10"/>
    </vehicle>
    <vehicle id="1078" depart="431.20">
        <route edges="-gneE7 -gneE2 gneE0 gneE5"/>
    </vehicle>
    <vehicle id="1079" depart="431.60">
        <route edges="-gneE1 gneE3 gneE6"/>
    </vehicle>
    <vehicle id="1081" depart="432.40">
        <route edges="-gneE0 gneE1 gneE4"/>
    </vehicle>
    <vehicle id="1084" depart="433.60">
        <route edges="-gneE11 -gneE9 -gneE4 -gneE1 gneE2"/>
    </vehicle>
    <vehicle id="1086" depart="434.40">